*Heading
** Job name: base Model name: Model-1
** Generated by: Abaqus/CAE 2021
*Preprint, echo=NO, model=NO, history=NO, contact=NO
**
** PARTS
**
*Part, name=base
*Node
      1,  -99.5184708,  -9.80171394,           0.
      2,        -100.,           0.,           0.
      3,  -99.5184708,   9.80171394,           0.
      4,  -98.0785294,   19.5090313,           0.
      5,  -95.6940308,   29.0284672,           0.
      6,  -83.1469574,   55.5570221,           0.
      7,  -77.3010483,   63.4393272,           0.
      8,  -63.4393272,   77.3010483,           0.
      9,  -55.5570221,   83.1469574,           0.
     10,  -29.0284672,   95.6940308,           0.
     11,  -19.5090313,   98.0785294,           0.
     12,  -9.80171394,   99.5184708,           0.
     13,   9.80171394,   99.5184708,           0.
     14,   19.5090313,   98.0785294,           0.
     15,   29.0284672,   95.6940308,           0.
     16,   55.5570221,   83.1469574,           0.
     17,   63.4393272,   77.3010483,           0.
     18,   77.3010483,   63.4393272,           0.
     19,   83.1469574,   55.5570221,           0.
     20,   95.6940308,   29.0284672,           0.
** ... 22879 like lines cut
*Element, type=C3D4
     1, 10080, 10081, 10082, 10083
     2, 10084, 10080, 10082, 10085
     3, 10080, 10086, 10087, 10088
     4, 10080, 10085, 10088, 10083
     5, 10089, 10090, 10091, 10092
     6, 10090, 10093, 10094, 10095
     7, 10090, 10093, 10095, 10096
     8, 10090, 10095, 10094, 10097
     9, 10090, 10098, 10099, 10097
    10, 10100, 10101, 10102, 10103
    11, 10100, 10104, 10105, 10106
    12, 10107, 10100, 10108, 10109
    13, 10100, 10109, 10107, 10105
    14, 10100, 10106, 10105, 10103
    15, 10110, 10111, 10112, 10113
    16, 10110, 10114, 10113, 10115
    17, 10110, 10116, 10114, 10115
    18, 10110, 10117, 10112, 10111
    19, 10110, 10116, 10115, 10118
    20, 10119, 10120, 10121, 10122
** ... 107287 like lines cut
*Nset, nset=Set-1, generate
     1,  22899,      1
*Elset, elset=Set-1, generate
      1,  107307,       1
*Nset, nset=base
    1,    2,    3,    4,    5,    6,    7,    8,    9,   10,   11,   12,   13,   14,   15,   16
   17,   18,   19,   20,   21,   22,   23,   24,   25,   26,   27,   28,   29,   30,   31,   32
   33,   34,   35,   36,   37,   38,   39,   40,   41,   42,  169,  170,  171,  172,  173,  174
  175,  176,  177,  178,  179,  180,  181,  182,  183,  184,  185,  186,  187,  188,  189,  190
  191,  192,  193,  194,  195,  196,  197,  198,  199,  200,  201,  202,  203,  204,  205,  206
  207,  208,  209,  210,  211,  212,  213,  214,  215,  216,  217,  218,  219,  220,  221,  222
  223,  224,  225,  226,  227,  228,  229,  230,  231,  232,  233,  234,  235,  236,  237,  238
  239,  240,  241,  242,  243,  244,  245,  246,  247,  248,  249,  250,  251,  252,  253,  254
  255,  256,  257,  258,  259,  260,  261,  262,  263,  264,  265,  266,  267,  268,  269,  270
  271,  272,  273,  274,  275,  276,  277,  278,  279,  280,  281,  282,  283,  284,  285,  286
  287,  288,  289,  290,  291,  292,  293,  294,  295,  296,  635,  636,  637,  638,  639,  640
  641,  642,  643,  644,  645,  646,  647,  648,  649,  650,  651,  652,  653,  654,  655,  656
  657,  658,  659,  660,  661,  662,  663,  664,  665,  666,  667,  668,  669,  670,  671,  672
  673,  674,  675,  676,  677,  678,  679,  680,  681,  682,  683,  684,  685,  686,  687,  688
  689,  690,  691,  692,  693,  694,  695,  696,  697,  698,  699,  700,  701,  702,  703,  704
  705,  706,  707,  708,  709,  710,  711,  712,  713,  714,  715,  716,  717,  718,  719,  720
  721,  722,  723,  724,  725,  726,  727,  728,  729,  730,  731,  732,  733,  734,  735,  736
  737,  738,  739,  740,  741,  742,  743,  744,  745,  746,  747,  748,  749,  750,  751,  752
  753,  754,  755,  756,  757,  758,  759,  760,  761,  762,  763,  764,  765,  766,  767,  768
  769,  770,  771,  772,  773,  774,  775,  776,  777,  778,  779,  780,  781,  782,  783,  784
** ... 144 like lines cut
*Elset, elset=base
    133,    339,    497,    753,    798,    852,   1152,   1428,   1596,   1940,   2092,   2194,   2400,   2919,   3048,   3336
   3401,   3528,   3681,   4390,   5132,   5306,   5382,   5478,   5709,   6250,   6455,   6471,   6811,   7233,   7382,   7780
   8135,   8337,   9460,   9903,  10633,  10680,  10879,  11032,  11392,  11397,  12061,  12375,  12576,  12585,  12681,  12687
  12702,  12708,  12709,  12714,  12718,  12769,  12783,  12790,  12821,  12824,  12865,  12874,  12881,  12887,  12896,  12916
  12931,  12943,  12964,  12968,  12969,  12974,  12998,  12999,  13014,  13020,  13026,  13050,  13059,  13060,  13074,  13079
  13080,  13082,  13120,  13155,  13163,  13165,  13173,  13174,  13175,  13184,  13187,  13188,  13199,  13200,  13201,  13203
  13208,  13218,  13221,  13227,  13228,  13237,  13247,  13250,  13258,  13266,  13275,  13284,  13291,  13296,  13297,  13303
  13310,  13315,  13323,  13331,  13332,  13340,  13343,  13344,  13348,  13360,  13365,  13370,  13373,  13385,  13396,  13397
  13398,  13400,  13403,  13425,  13457,  13463,  13521,  13549,  13585,  13727,  13730,  13732,  13739,  13756,  13758,  13769
  13825,  13891,  13930,  13932,  13938,  13939,  13948,  13964,  13975,  13990,  13997,  14000,  14007,  14031,  14033,  14050
  14064,  14067,  14068,  14082,  14091,  14115,  14136,  14164,  14173,  14175,  14204,  14211,  14238,  14249,  14250,  14251
  14261,  14262,  14263,  14286,  14290,  14298,  14317,  14321,  14323,  14324,  14334,  14336,  14337,  14350,  14367,  14390
  14421,  14423,  14441,  14442,  14495,  14499,  14505,  14525,  14531,  14532,  14533,  14555,  14575,  14584,  14590,  14594
  14598,  14607,  14608,  14647,  14693,  14707,  14725,  14726,  14741,  14750,  14761,  14778,  14780,  14783,  14786,  14787
  14815,  14820,  14821,  14830,  14831,  14839,  14844,  14847,  14852,  14853,  14863,  14865,  14874,  14878,  14900,  14903
  14906,  14907,  14908,  14915,  14918,  14919,  14921,  14944,  14946,  14947,  14948,  14950,  14951,  14964,  14970,  14982
  14992,  14994,  15003,  15007,  15019,  15039,  15041,  15042,  15045,  15051,  15070,  15073,  15074,  15092,  15098,  15100
  15105,  15107,  15108,  15124,  15130,  15138,  15143,  15152,  15154,  15159,  15161,  15168,  15183,  15190,  15197,  15210
  15211,  15218,  15219,  15228,  15229,  15236,  15237,  15238,  15245,  15248,  15249,  15250,  15257,  15259,  15260,  15261
  15267,  15269,  15270,  15276,  15277,  15279,  15287,  15289,  15299,  15306,  15307,  15312,  15314,  15322,  15331,  15337
** ... 298 like lines cut
*Elset, elset=_contact_S2, internal
     69,    787,    809,    961,   1160,   1656,   2214,   2338,   2497,   3241,   3579,   3592,   3689,   3701,   4048,   4705
   4791,   5352,   5385,   5653,   5722,   5844,   6046,   6050,   6496,   7160,   7406,   8013,   9095,   9395,   9979,  10179
  10534,  11189,  11196,  11218,  12249,  12738,  12858,  13542,  13543,  13633,  13649,  13882,  13916,  14001,  14137,  14147
  14181,  14254,  14276,  14297,  14301,  14438,  14443,  14476,  14542,  14572,  14624,  14632,  14817,  14826,  14895,  15332
  15678,  17297,  17355,  17457,  17468,  17570,  17583,  18105,  18733,  19137,  19517,  19642,  19704,  19798,  19918,  20079
  20230,  20247,  20260,  20381,  20383,  20440,  20456,  20485,  20684,  20711,  20724,  20870,  20901,  20913,  20914,  21106
  21562,  21563,  21970,  21991,  22201,  22218,  22262,  22278,  22428,  22635,  22711,  23239,  23625,  23933,  24469,  24732
  25985,  26879,  26904,  27039,  27091,  27182,  27210,  27396,  27400,  27523,  27889,  27907,  27926,  29546,  30696,  32421
  33706,  33922,  33925,  34024,  34207,  34215,  34289,  34340,  34433,  34435,  34625,  34638,  34663,  34682,  34690,  34745
  34828,  34841,  34870,  34916,  34924,  34930,  34982,  35065,  35182,  35210,  35236,  35251,  35289,  35365,  35432,  35452
  35516,  35674,  35685,  35697,  35790,  35827,  35849,  35860,  35870,  35890,  35934,  35938,  35941,  35960,  35973,  35974
  36102,  36123,  36134,  36166,  36272,  36336,  36491,  36541,  36635,  36656,  36898,  37126,  37481,  37828,  37845,  38058
  38261,  38394,  38490,  38596,  38606,  38623,  38923,  39052,  39097,  39165,  39266,  39354,  39467,  39500,  39585,  39586
  39621,  39693,  39712,  39718,  39732,  39928,  39929,  40233,  41025,  41105,  41223,  41341,  41667,  41788,  41881,  42094
  42188,  42293,  42396,  42510,  42587,  42682,  42685,  42832,  42907,  43020,  43034,  43038,  43039,  43130,  43149,  43372
  43714,  44062,  44178,  44185,  44195,  44275,  44423,  44510,  44517,  44564,  44815,  45133,  45260,  45266,  45406,  45487
  45565,  45704,  46100,  46598,  46614,  46618,  46630,  46672,  46690,  46716,  46727,  46741,  46745,  46753,  46757,  46766
  46771,  46772,  46780,  46788,  46793,  46806,  46812,  46844,  46852,  46884,  46887,  46889,  46909,  46938,  46945,  46979
  46988,  46990,  46993,  47008,  47036,  47041,  47052,  47079,  47090,  47100,  47114,  47127,  47143,  47153,  47158,  47164
  47169,  47172,  47178,  47185,  47207,  47227,  47230,  47247,  47253,  47257,  47258,  47266,  47272,  47277,  47293,  47318
** ... 29 like lines cut
*Elset, elset=_contact_S3, internal
    179,    253,    299,    344,    421,    515,    520,    567,    735,   2112,   2906,   3315,   3405,   3790,   4295,   5698
   6214,   6254,   6329,   6460,   7400,   7818,   8686,   8730,   9321,   9416,   9441,  10804,  11253,  11624,  12333,  12564
  12656,  12689,  12716,  12759,  12811,  12815,  12868,  12915,  12945,  12947,  13035,  13052,  13054,  13067,  13077,  13078
  13102,  13109,  13112,  13125,  13157,  13185,  13219,  13220,  13244,  13249,  13263,  13286,  13369,  13386,  13404,  13434
  13486,  13517,  13539,  13540,  13547,  13563,  13579,  13635,  13672,  13710,  13740,  13748,  13775,  13783,  13839,  13884
  13937,  13970,  13971,  13984,  14008,  14022,  14034,  14043,  14044,  14095,  14104,  14110,  14112,  14168,  14194,  14196
  14198,  14201,  14224,  14280,  14292,  14315,  14325,  14349,  14356,  14360,  14363,  14364,  14368,  14374,  14377,  14381
  14385,  14395,  14397,  14398,  14402,  14404,  14408,  14422,  14425,  14428,  14453,  14480,  14524,  14534,  14535,  14550
  14551,  14553,  14560,  14593,  14634,  14638,  14642,  14651,  14655,  14656,  14698,  14708,  14710,  14716,  14717,  14721
  14727,  14743,  14747,  14753,  14764,  14768,  14790,  14812,  14819,  14823,  14838,  14846,  14888,  14942,  14966,  15026
  15049,  15061,  15066,  15083,  15084,  15126,  15136,  15145,  15146,  15153,  15166,  15173,  15182,  15214,  15296,  15316
  15321,  15323,  15365,  15366,  15375,  15388,  15389,  15395,  15411,  15413,  15416,  15419,  15422,  15428,  15438,  15441
  15457,  15477,  15529,  15611,  15653,  15656,  15659,  15668,  15676,  15681,  15725,  15730,  15732,  15743,  15748,  15809
  16106,  16145,  16152,  16165,  16170,  16176,  16182,  16187,  16245,  16378,  16398,  16403,  16404,  16413,  16447,  16453
  16469,  16471,  16477,  16478,  16479,  16490,  16504,  16510,  16642,  16645,  16692,  16725,  16740,  16763,  16786,  16787
  16817,  16837,  16863,  16882,  16918,  16919,  16937,  16953,  16963,  16971,  17033,  17057,  17058,  17118,  17128,  17129
  17137,  17178,  17242,  17243,  17256,  17258,  17265,  17271,  17277,  17280,  17331,  17333,  17334,  17352,  17379,  17384
  17385,  17390,  17393,  17399,  17400,  17424,  17547,  17555,  17563,  17568,  17639,  17651,  17664,  17679,  17695,  17703
  17706,  17748,  17769,  17774,  17783,  17797,  17803,  17809,  17813,  17818,  17830,  17843,  18043,  18058,  18061,  18087
  18202,  18208,  18212,  18394,  18395,  18417,  18420,  18579,  18707,  18738,  18744,  19059,  19090,  19094,  19118,  19119
** ... 328 like lines cut
*Elset, elset=_contact_S4, internal
    590,    669,   1094,   1198,   1230,   1347,   1455,   1891,   3859,   5910,   5978,   6057,   6468,   6609,   6643,   6897
   7803,   7996,   8290,   8418,   8962,  10351,  11204,  11564,  11829,  12675,  13158,  13169,  13271,  13342,  13588,  13596
  13608,  13647,  13962,  14148,  14253,  14382,  14506,  14509,  14582,  14600,  14791,  14930,  14996,  15336,  16035,  16911
  17449,  17454,  17473,  17483,  17713,  17735,  17955,  18206,  18350,  18527,  18533,  19157,  19301,  19913,  19970,  20076
  20077,  20088,  20146,  20219,  20232,  20233,  20241,  20298,  20402,  20405,  20529,  20547,  20557,  20558,  20566,  20580
  20597,  20612,  20698,  20720,  20731,  20758,  20972,  21059,  21064,  21097,  21220,  21322,  21366,  21596,  21659,  21972
  21978,  22279,  22877,  22963,  23209,  23337,  23875,  23945,  24376,  25289,  25352,  26000,  27081,  27084,  27193,  27259
  27275,  27715,  30743,  30815,  30984,  31331,  31626,  31949,  32006,  32345,  32998,  33227,  33464,  33833,  34051,  34227
  34239,  34305,  34338,  34417,  34531,  34541,  34595,  34608,  34730,  34750,  34798,  34803,  34880,  34926,  34934,  34973
  35014,  35118,  35345,  35352,  35360,  35372,  35414,  35595,  35653,  35657,  35681,  35694,  35789,  35847,  35918,  35985
  36037,  36059,  36064,  36083,  36244,  36400,  36508,  36530,  36640,  36651,  36754,  36774,  36967,  37210,  37225,  37264
  37387,  37444,  37482,  37515,  37518,  37778,  37960,  37965,  38045,  38201,  38276,  38633,  38930,  39037,  39248,  39261
  39424,  39589,  40719,  40935,  41222,  41456,  42017,  42030,  42075,  42485,  42792,  42872,  42922,  42926,  43021,  43113
  43186,  43498,  43623,  43686,  43689,  43719,  43810,  43963,  44012,  44036,  44102,  44172,  44180,  44284,  44350,  44359
  44496,  44591,  44592,  44637,  44712,  45011,  45126,  45272,  45388,  45681,  45902,  46008,  46025,  46209,  46602,  46622
  46633,  46642,  46653,  46657,  46674,  46677,  46678,  46720,  46722,  46749,  46752,  46773,  46783,  46808,  46830,  46847
  46900,  46905,  46906,  46907,  46955,  46959,  46966,  46975,  47004,  47017,  47018,  47038,  47042,  47071,  47092,  47095
  47120,  47167,  47232,  47279,  47309,  47327,  47348,  47350,  47358,  47374,  47382,  47399,  47400,  47441,  47445,  47459
  47461,  47464,  47480,  47482,  47484,  47486,  47487,  47518,  47524,  47540,  47544,  47555,  47558,  47576,  47577,  47590
  47593,  47617,  47628,  47636,  47639,  47640,  47655,  47668,  47670,  47676,  47679,  47680,  47704,  47705,  47710,  47713
** ... 27 like lines cut
*Elset, elset=_contact_S1, internal
    782,    878,   1276,   2520,   3327,   3577,   3637,   4561,   4616,   5411,   6974,   7252,   8914,   8980,   9092,   9635
   9862,  10046,  10160,  10164,  10470,  11190,  11609,  11925,  12376,  12476,  12666,  12668,  12763,  12978,  13117,  13288
  13295,  13439,  13459,  13464,  13471,  13644,  13648,  13737,  13879,  14041,  14059,  14089,  14185,  14255,  14271,  14344
  14411,  14660,  17407,  17443,  17491,  19693,  19745,  19896,  20061,  20220,  20251,  20598,  20706,  20718,  20722,  20827
  20889,  20897,  21354,  21496,  21520,  21556,  21566,  21567,  21971,  22206,  22851,  23935,  25619,  25720,  25734,  26789
  26884,  27089,  27099,  27256,  27428,  27884,  27933,  28029,  31977,  32807,  32977,  33512,  33521,  33587,  33649,  33803
  33936,  33979,  33994,  33996,  34005,  34055,  34217,  34238,  34251,  34269,  34274,  34339,  34367,  34372,  34389,  34399
  34529,  34537,  34622,  34644,  34709,  34713,  34748,  34751,  34760,  34787,  34788,  34813,  34817,  34818,  34822,  34830
  34831,  34886,  34940,  34989,  35079,  35113,  35128,  35180,  35195,  35229,  35234,  35265,  35334,  35338,  35362,  35368
  35373,  35392,  35425,  35429,  35473,  35477,  35482,  35547,  35548,  35550,  35565,  35569,  35592,  35739,  35743,  35785
  36069,  36076,  36099,  36229,  36238,  36462,  36473,  36605,  36634,  36724,  36921,  36961,  36970,  36980,  37014,  37159
  37384,  37412,  37445,  37447,  37492,  37621,  37633,  37725,  37818,  37921,  38168,  38286,  38389,  38406,  38438,  38503
  38603,  38619,  38639,  38737,  38829,  38939,  39040,  39060,  39152,  39385,  39494,  39541,  39580,  39808,  39812,  40014
  40023,  40070,  40131,  40343,  40368,  40391,  40689,  40800,  40887,  40996,  41116,  41125,  41166,  41231,  41242,  41265
  41457,  41463,  41654,  41655,  41774,  41785,  41804,  41882,  41989,  42099,  42285,  42287,  42290,  42291,  42302,  42506
  42509,  42607,  42616,  43025,  43112,  43115,  43135,  43491,  43697,  43709,  43725,  43886,  43931,  44070,  44072,  44187
  44283,  44311,  44485,  44516,  44597,  44610,  44690,  44697,  44810,  44926,  44930,  44935,  45015,  45034,  45050,  45053
  45241,  45265,  45582,  45672,  45801,  45804,  45805,  45891,  46172,  46195,  46196,  46316,  46411,  46413,  46511,  46603
  46615,  46616,  46619,  46637,  46640,  46650,  46651,  46664,  46695,  46698,  46700,  46724,  46725,  46754,  46768,  46790
  46800,  46843,  46851,  46856,  46890,  46902,  46914,  46930,  46931,  46934,  46951,  46960,  46978,  47006,  47061,  47065
** ... 35 like lines cut
*Surface, type=ELEMENT, name=contact
_contact_S2, S2
_contact_S3, S3
_contact_S4, S4
_contact_S1, S1
** Section: Section-1
*Solid Section, elset=Set-1, material=Material-1
,
*End Part
**  
**
** ASSEMBLY
**
*Assembly, name=Assembly
**  
*Instance, name=base-1, part=base
*End Instance
**  
*End Assembly
** 
** MATERIALS
** 
*Material, name=Material-1
*Hyperelastic, neo hooke
 0.24, 0.4
