*Heading
** Job name: TopOptRun Model name: Model-1
** Generated by: Abaqus/CAE 2021
*Preprint, echo=NO, model=NO, history=NO, contact=NO
**
** PARTS
**
*Part, name=final_model
*Node
      1,   6.84806156,   9.78004551,           0.
      2,   7.08528519,   10.1188364,          80.
      3,  -3.78181219,   1.60133719,   52.8707886
      4,  -3.67906165,  0.197136417,   51.7186623
      5,  -4.23129368, -0.550228775,   53.2771339
      6,  -4.33641338,  0.833420634,   54.6276283
      7,  -4.02053118,   2.00878835,    55.921711
      8,  -4.51465511, -0.0740389898,   56.4592552
      9,  -5.38771391, 0.00109104032,   58.0248375
     10,  -6.03338385,   1.62622404,   58.5497589
     11,  -4.68136215,   1.70274723,   57.3791847
     12,  -6.89890385,   3.20717478,   58.5130768
     13,  -7.92180872,    1.4470104,   58.7086449
     14,   -7.9626503,   4.59403276,    57.761898
     15,  -5.52151537,   4.80819225,   58.1413803
     16,  -5.24060249,   3.07256174,   58.0680237
     17,  -7.04434586,   6.26603842,   57.3535461
     18,  -3.73357844,   2.50358534,   54.3152161
     19,  -5.22893953,   6.38353348,   57.7556496
     20,  -5.97923756,   7.58513021,   56.6763344
** ... 1597 like lines cut
*Element, type=C3D4
   1, 1137, 1138, 1139, 1140
   2, 1137, 1141, 1142, 1143
   3, 1137, 1141, 1144, 1142
   4, 1137, 1142, 1145, 1143
   5, 1137, 1146, 1147, 1148
   6, 1137, 1147, 1146, 1149
   7, 1137, 1148, 1138, 1140
   8, 1150, 1151, 1152, 1153
   9, 1150, 1152,  358,  389
  10, 1150, 1154,  383,  325
  11, 1137, 1138, 1155, 1139
  12, 1142, 1156, 1157, 1158
  13, 1142, 1159, 1147, 1160
  14, 1142, 1137, 1147, 1144
  15, 1142, 1147, 1159, 1144
  16, 1142, 1161, 1162, 1163
  17, 1142, 1143, 1141, 1157
  18, 1143, 1138, 1164, 1145
  19, 1143, 1165, 1157, 1145
  20, 1143, 1166, 1167, 1168
** ... 6147 like lines cut
*Nset, nset=surface_0_All
    1,    2,  779,  780,  781,  782,  783,  784,  785,  786,  787,  788,  789,  790,  791,  792
  793,  794,  795,  796,  797,  798,  799,  800,  801,  802,  803,  804,  805,  806,  807,  808
  809,  810,  811,  812,  813,  814,  815,  816,  817,  818,  819,  820,  821,  822,  823,  824
  825,  826,  827,  828,  829,  830,  831,  832,  833,  834,  835,  836,  837,  838,  839,  840
  841,  842,  843,  844,  845,  846,  847,  848,  849,  850,  851,  852,  853,  854,  855,  856
  857,  858,  859,  860,  861,  862,  863,  864,  865,  866,  867,  868,  869,  870,  871,  872
  873,  874,  875,  876,  877,  878,  879,  880,  881,  882,  883,  884,  885,  886,  887,  888
  889,  890,  891,  892,  893,  894,  895,  896,  897,  898,  899,  900,  901,  902,  903,  904
  905,  906,  907,  908,  909,  910,  911,  912,  913,  914,  915,  916,  917,  918,  919,  920
  921,  922,  923,  924,  925,  926,  927,  928,  929,  930,  931,  932,  933,  934,  935,  936
  937,  938,  939,  940,  941,  942,  943,  944,  945,  946,  947,  948,  949,  950,  951,  952
  953,  954,  955,  956,  957,  958,  959,  960,  961,  962,  963,  964,  965,  966,  967,  968
  969,  970,  971,  972,  973,  974,  975,  976,  977,  978,  979,  980,  981,  982,  983,  984
  985,  986,  987,  988,  989,  990,  991,  992,  993,  994,  995,  996,  997,  998,  999, 1000
 1001, 1002, 1003, 1004, 1005, 1006, 1007, 1008, 1009, 1010, 1011, 1012, 1013, 1014, 1015, 1016
 1017, 1018, 1019, 1020, 1021, 1022, 1023, 1024, 1025, 1026, 1027, 1028, 1029, 1030, 1031, 1032
 1033, 1034, 1035, 1036, 1037, 1038, 1039, 1040, 1041, 1042, 1043, 1044, 1045, 1046, 1047, 1048
 1049, 1050, 1051, 1052, 1053, 1054, 1055, 1056, 1057, 1058, 1059, 1060, 1061, 1062, 1063, 1064
 1065, 1066, 1067, 1068, 1069, 1070, 1071, 1072, 1073, 1074, 1075, 1076, 1077, 1078, 1079, 1080
 1081, 1082, 1083, 1084, 1085, 1086, 1087, 1088, 1089, 1090, 1091, 1092, 1093, 1094, 1095, 1096
 1097, 1098, 1099, 1100, 1101, 1102, 1103, 1104, 1105, 1106, 1107, 1108, 1109, 1110, 1111, 1112
 1113, 1114, 1115, 1116, 1117, 1118, 1119, 1120, 1121, 1122, 1123, 1124, 1125, 1126, 1127, 1128
 1129, 1130, 1131, 1132, 1133, 1134, 1135, 1136
*Elset, elset=surface_0_All
  277,  280,  522,  523,  529,  533,  539,  540,  541,  614,  669,  671,  684,  785,  787,  840
  976, 1142, 1322, 1450, 1464, 1466, 1490, 1496, 1501, 1510, 1523, 1557, 1590, 1601, 1608, 1612
 1614, 1620, 1624, 1627, 1629, 1632, 1641, 1661, 1669, 1672, 1673, 1686, 1689, 1696, 1710, 1711
 1712, 1713, 1723, 1737, 1744, 1745, 1746, 1752, 1771, 1776, 1779, 1780, 1781, 1782, 1783, 1784
 1803, 1807, 1814, 1820, 1822, 1823, 1825, 1826, 1827, 1835, 1846, 1863, 1867, 1877, 1880, 1885
 1888, 1894, 1901, 1907, 1915, 1917, 1919, 1925, 1931, 1932, 1933, 1939, 1945, 1946, 1951, 1952
 1956, 1957, 1959, 1963, 1969, 1973, 1977, 1996, 2007, 2008, 2024, 2027, 2051, 2052, 2054, 2066
 2070, 2071, 2073, 2081, 2084, 2101, 2108, 2113, 2119, 2120, 2121, 2124, 2125, 2145, 2146, 2159
 2161, 2162, 2168, 2169, 2170, 2172, 2177, 2180, 2181, 2183, 2184, 2193, 2201, 2206, 2207, 2208
 2209, 2216, 2217, 2229, 2246, 2254, 2257, 2266, 2267, 2283, 2284, 2285, 2287, 2291, 2294, 2302
 2305, 2306, 2308, 2309, 2312, 2323, 2325, 2327, 2329, 2336, 2340, 2343, 2349, 2352, 2356, 2357
 2364, 2365, 2366, 2368, 2371, 2381, 2392, 2393, 2398, 2403, 2404, 2411, 2417, 2423, 2432, 2441
 2447, 2460, 2462, 2463, 2474, 2483, 2494, 2510, 2512, 2524, 2528, 2530, 2532, 2533, 2538, 2539
 2541, 2544, 2545, 2549, 2559, 2560, 2566, 2571, 2580, 2581, 2583, 2584, 2587, 2591, 2592, 2593
 2614, 2615, 2619, 2626, 2627, 2631, 2632, 2641, 2644, 2648, 2651, 2654, 2655, 2659, 2667, 2673
 2674, 2680, 2681, 2698, 2702, 2728, 2730, 2733, 2738, 2741, 2746, 2747, 2751, 2765, 2770, 2777
 2794, 2806, 2814, 2828, 2831, 2833, 2842, 2844, 2846, 2848, 2854, 2859, 2863, 2870, 2873, 2877
 2889, 2890, 2894, 2902, 2908, 2927, 2931, 2939, 2942, 2963, 2977, 2978, 2991, 2994, 3009, 3014
 3016, 3017, 3027, 3038, 3049, 3050, 3053, 3061, 3066, 3080, 3085, 3092, 3096, 3097, 3102, 3104
 3112, 3113, 3115, 3116, 3125, 3129, 3130, 3131, 3133, 3138, 3146, 3156, 3158, 3165, 3171, 3175
** ... 24 like lines cut
*Nset, nset=surface_0_Head
    2,  795,  796,  797,  798,  799,  800,  801,  802,  803,  804,  805,  806,  807,  808,  809
  810, 1120, 1121, 1122, 1123, 1124, 1125, 1126, 1127, 1128, 1129, 1130, 1131, 1132, 1133, 1134
 1135, 1136
*Elset, elset=surface_0_Head
  522,  523, 1601, 1620, 2052, 2071, 2084, 2108, 2120, 2124, 2125, 2145, 2162, 2170, 2172, 2184
 2201, 2207, 2364, 2447, 2859, 3685, 3742, 3769, 3834, 4024, 4026, 4028, 4032, 4038, 4040, 4057
 4059, 4064, 4068, 4073, 4079, 4082, 4087, 4095, 4098, 4107, 4110, 4118, 4121, 4125, 4128, 4808
 5206,
*Nset, nset=surface_0_Bottom
   1, 779, 780, 781, 782, 783, 784, 785, 786, 787, 788, 789, 790, 791, 792, 793
 794, 828, 829, 830, 831, 832, 833, 834, 835, 836, 837, 838, 839, 840, 841, 842
 843, 844, 845, 846, 847
*Elset, elset=surface_0_Bottom
  614,  684, 1322, 1496, 1590, 1689, 1712, 1713, 1803, 1807, 1820, 1823, 1825, 1826, 1885, 1888
 1894, 1901, 1915, 1919, 1925, 1931, 1932, 1933, 1939, 1946, 1951, 1952, 1959, 1963, 1969, 1977
 2024, 3292, 3386, 3425, 3428, 3432, 3562, 3594, 3628, 3642, 3647, 3661, 3663, 3700, 3701, 3736
 3741, 3764, 3771, 3775, 3790, 3906, 4016
*Nset, nset=surface_0_Lateral
    1,    2,  779,  780,  781,  782,  783,  784,  785,  786,  787,  788,  789,  790,  791,  792
  793,  794,  795,  796,  797,  798,  799,  800,  801,  802,  803,  804,  805,  806,  807,  808
  809,  810,  811,  812,  813,  814,  815,  816,  817,  818,  819,  820,  821,  822,  823,  824
  825,  826,  827,  848,  849,  850,  851,  852,  853,  854,  855,  856,  857,  858,  859,  860
  861,  862,  863,  864,  865,  866,  867,  868,  869,  870,  871,  872,  873,  874,  875,  876
  877,  878,  879,  880,  881,  882,  883,  884,  885,  886,  887,  888,  889,  890,  891,  892
  893,  894,  895,  896,  897,  898,  899,  900,  901,  902,  903,  904,  905,  906,  907,  908
  909,  910,  911,  912,  913,  914,  915,  916,  917,  918,  919,  920,  921,  922,  923,  924
  925,  926,  927,  928,  929,  930,  931,  932,  933,  934,  935,  936,  937,  938,  939,  940
  941,  942,  943,  944,  945,  946,  947,  948,  949,  950,  951,  952,  953,  954,  955,  956
  957,  958,  959,  960,  961,  962,  963,  964,  965,  966,  967,  968,  969,  970,  971,  972
  973,  974,  975,  976,  977,  978,  979,  980,  981,  982,  983,  984,  985,  986,  987,  988
  989,  990,  991,  992,  993,  994,  995,  996,  997,  998,  999, 1000, 1001, 1002, 1003, 1004
 1005, 1006, 1007, 1008, 1009, 1010, 1011, 1012, 1013, 1014, 1015, 1016, 1017, 1018, 1019, 1020
 1021, 1022, 1023, 1024, 1025, 1026, 1027, 1028, 1029, 1030, 1031, 1032, 1033, 1034, 1035, 1036
 1037, 1038, 1039, 1040, 1041, 1042, 1043, 1044, 1045, 1046, 1047, 1048, 1049, 1050, 1051, 1052
 1053, 1054, 1055, 1056, 1057, 1058, 1059, 1060, 1061, 1062, 1063, 1064, 1065, 1066, 1067, 1068
 1069, 1070, 1071, 1072, 1073, 1074, 1075, 1076, 1077, 1078, 1079, 1080, 1081, 1082, 1083, 1084
 1085, 1086, 1087, 1088, 1089, 1090, 1091, 1092, 1093, 1094, 1095, 1096, 1097, 1098, 1099, 1100
 1101, 1102, 1103, 1104, 1105, 1106, 1107, 1108, 1109, 1110, 1111, 1112, 1113, 1114, 1115, 1116
 1117, 1118, 1119
*Elset, elset=surface_0_Lateral
  277,  280,  529,  533,  539,  540,  541,  669,  671,  785,  787,  840,  976, 1142, 1450, 1464
 1466, 1490, 1496, 1501, 1510, 1523, 1557, 1601, 1608, 1612, 1614, 1624, 1627, 1629, 1632, 1641
 1661, 1669, 1672, 1673, 1686, 1696, 1710, 1711, 1712, 1723, 1737, 1744, 1745, 1746, 1752, 1771
 1776, 1779, 1780, 1781, 1782, 1783, 1784, 1814, 1822, 1827, 1835, 1846, 1863, 1867, 1877, 1880
 1888, 1907, 1917, 1925, 1931, 1939, 1945, 1951, 1956, 1957, 1973, 1996, 2007, 2008, 2027, 2051
 2052, 2054, 2066, 2070, 2071, 2073, 2081, 2084, 2101, 2108, 2113, 2119, 2120, 2121, 2124, 2125
 2145, 2146, 2159, 2161, 2162, 2168, 2169, 2170, 2172, 2177, 2180, 2181, 2183, 2184, 2193, 2206
 2207, 2208, 2209, 2216, 2217, 2229, 2246, 2254, 2257, 2266, 2267, 2283, 2284, 2285, 2287, 2291
 2294, 2302, 2305, 2306, 2308, 2309, 2312, 2323, 2325, 2327, 2329, 2336, 2340, 2343, 2349, 2352
 2356, 2357, 2365, 2366, 2368, 2371, 2381, 2392, 2393, 2398, 2403, 2404, 2411, 2417, 2423, 2432
 2441, 2460, 2462, 2463, 2474, 2483, 2494, 2510, 2512, 2524, 2528, 2530, 2532, 2533, 2538, 2539
 2541, 2544, 2545, 2549, 2559, 2560, 2566, 2571, 2580, 2581, 2583, 2584, 2587, 2591, 2592, 2593
 2614, 2615, 2619, 2626, 2627, 2631, 2632, 2641, 2644, 2648, 2651, 2654, 2655, 2659, 2667, 2673
 2674, 2680, 2681, 2698, 2702, 2728, 2730, 2733, 2738, 2741, 2746, 2747, 2751, 2765, 2770, 2777
 2794, 2806, 2814, 2828, 2831, 2833, 2842, 2844, 2846, 2848, 2854, 2863, 2870, 2873, 2877, 2889
 2890, 2894, 2902, 2908, 2927, 2931, 2939, 2942, 2963, 2977, 2978, 2991, 2994, 3009, 3014, 3016
 3017, 3027, 3038, 3049, 3050, 3053, 3061, 3066, 3080, 3085, 3092, 3096, 3097, 3102, 3104, 3112
 3113, 3115, 3116, 3125, 3129, 3130, 3131, 3133, 3138, 3146, 3156, 3158, 3165, 3171, 3175, 3177
 3183, 3186, 3212, 3218, 3249, 3250, 3255, 3261, 3274, 3282, 3289, 3292, 3294, 3300, 3313, 3317
 3322, 3325, 3332, 3348, 3359, 3360, 3365, 3370, 3382, 3383, 3389, 3397, 3402, 3403, 3405, 3412
** ... 19 like lines cut
*Nset, nset=surface_1_All, generate
   3,  778,    1
*Elset, elset=surface_1_All
   39,   61,   91,  108,  137,  140,  144,  147,  166,  171,  199,  207,  229,  237,  243,  283
  328,  334,  340,  345,  361,  394,  395,  417,  422,  462,  481,  504,  506,  526,  579,  582
  587,  600,  606,  612,  626,  628,  631,  633,  635,  654,  672,  682,  685,  691,  698,  703
  704,  736,  751,  755,  766,  767,  768,  769,  771,  772,  783,  803,  807,  811,  816,  821
  824,  825,  836,  842,  863,  870,  872,  886,  890,  891,  911,  914,  920,  925,  932,  934
  942,  965,  978,  980,  998, 1009, 1013, 1014, 1021, 1040, 1054, 1057, 1078, 1080, 1082, 1088
 1090, 1102, 1127, 1134, 1149, 1150, 1154, 1171, 1175, 1204, 1209, 1219, 1221, 1229, 1250, 1251
 1252, 1255, 1259, 1261, 1268, 1269, 1276, 1293, 1300, 1311, 1370, 1376, 1382, 1389, 1392, 1411
 1415, 1445, 1454, 1455, 1457, 1461, 1504, 1514, 1517, 1529, 1530, 1555, 1556, 1592, 1593, 1596
 1599, 1610, 1611, 1613, 1623, 1633, 1634, 1636, 1639, 1640, 1643, 1650, 1655, 1656, 1660, 1667
 1668, 1670, 1671, 1674, 1676, 1679, 1681, 1682, 1684, 1685, 1687, 1688, 1693, 1695, 1697, 1699
 1728, 1729, 1732, 1740, 1741, 1742, 1747, 1750, 1751, 1754, 1760, 1763, 1769, 1791, 1792, 1793
 1794, 1816, 1824, 1843, 1845, 1851, 1866, 1887, 1890, 1900, 1923, 1926, 1950, 1966, 1967, 1995
 1998, 2002, 2012, 2013, 2020, 2026, 2034, 2041, 2055, 2067, 2076, 2083, 2086, 2099, 2109, 2112
 2115, 2127, 2129, 2131, 2133, 2140, 2143, 2158, 2173, 2175, 2178, 2182, 2186, 2215, 2220, 2244
 2245, 2247, 2253, 2259, 2260, 2263, 2265, 2272, 2273, 2277, 2292, 2295, 2319, 2334, 2337, 2338
 2339, 2358, 2359, 2367, 2370, 2372, 2383, 2386, 2387, 2396, 2397, 2399, 2400, 2421, 2429, 2430
 2435, 2437, 2445, 2449, 2450, 2451, 2452, 2457, 2486, 2487, 2488, 2501, 2516, 2518, 2531, 2551
 2563, 2572, 2577, 2590, 2596, 2608, 2622, 2625, 2633, 2634, 2647, 2649, 2657, 2658, 2663, 2665
 2666, 2670, 2672, 2676, 2719, 2720, 2721, 2725, 2726, 2732, 2739, 2749, 2750, 2755, 2768, 2769
** ... 76 like lines cut
*Nset, nset=RubberSet, generate
    1,  1617,     1
*Elset, elset=RubberSet, generate
    1,  6167,     1
*Elset, elset=_surface_0_All_S3, internal
  277,  522,  523,  529,  540,  541,  614,  671,  684,  976, 1142, 1464, 1466, 1490, 1496, 1510
 1601, 1608, 1612, 1614, 1620, 1624, 1629, 1632, 1641, 1669, 1673, 1686, 1689, 1696, 1710, 1711
 1712, 1713, 1723, 1737, 1744, 1745, 1746, 1752, 1771, 1776, 1779, 1781, 1782, 1783, 1784, 1803
 1807, 1814, 1820, 1822, 1823, 1825, 1826, 1827, 1835, 1846, 1863, 1867, 1877, 1880, 1885, 1888
 1894, 1901, 1907, 1915, 1917, 1919, 1925, 1932, 1933, 1939, 1946, 1951, 1952, 1957, 1963, 1969
 1973, 1977, 1996, 2007, 2008, 2024, 2027, 2051, 2052, 2066, 2070, 2071, 2073, 2081, 2084, 2101
 2108, 2113, 2119, 2120, 2121, 2124, 2125, 2145, 2146, 2159, 2161, 2162, 2169, 2170, 2172, 2177
 2180, 2183, 2184, 2193, 2201, 2206, 2207, 2208, 2209, 2216, 2217, 2229, 2246, 2254, 2257, 2266
 2267, 2283, 2284, 2285, 2287, 2291, 2294, 2302, 2305, 2306, 2308, 2309, 2312, 2323, 2325, 2327
 2329, 2336, 2340, 2343, 2349, 2352, 2357, 2364, 2365, 2366, 2368, 2381, 2392, 2393, 2398, 2403
 2404, 2411, 2417, 2423, 2432, 2441, 2447, 2460, 2462, 2463, 2474, 2483, 2494, 2510, 2512, 2524
 2528, 2530, 2532, 2533, 2538, 2539, 2541, 2544, 2545, 2549, 2559, 2560, 2566, 2571, 2580, 2581
 2583, 2584, 2587, 2591, 2592, 2593, 2614, 2615, 2619, 2626, 2627, 2631, 2632, 2641, 2644, 2648
 2651, 2654, 2655, 2659, 2667, 2673, 2674, 2681, 2698, 2702, 2728, 2730, 2733, 2738, 2741, 2747
 2751, 2765, 2770, 2777, 2794, 2806, 2814, 2828, 2831, 2833, 2842, 2844, 2846, 2848, 2854, 2859
 2870, 2873, 2877, 2890, 2894, 2902, 2927, 2931, 2939, 2942, 2963, 2977, 2978, 2991, 2994, 3014
 3016, 3017, 3027, 3038, 3049, 3050, 3061, 3066, 3080, 3085, 3092, 3096, 3097, 3102, 3112, 3113
 3115, 3116, 3125, 3129, 3130, 3131, 3133, 3138, 3146, 3156, 3158, 3165, 3171, 3175, 3177, 3183
 3212, 3218, 3249, 3250, 3255, 3261, 3282, 3289, 3294, 3300, 3313, 3317, 3322, 3325, 3332, 3348
 3359, 3360, 3365, 3370, 3382, 3383, 3386, 3389, 3397, 3403, 3412, 3416, 3424, 3428, 3432, 3441
** ... 18 like lines cut
*Elset, elset=_surface_0_All_S4, internal
  280,  533,  539,  840, 1322, 1450, 1496, 1557, 1590, 1601, 1661, 1672, 1712, 1780, 1925, 1931
 1939, 1951, 2120, 2356, 2371, 3009, 3292, 3425, 3642, 3663, 3700, 3946, 4064, 4074, 4079, 4297
 5133, 5719, 5721, 5874, 5884, 5958, 6011
*Elset, elset=_surface_0_All_S2, internal
  669,  785,  787, 1627, 1945, 2052, 2054, 2124, 2125, 2162, 2172, 2181, 2184, 2207, 2680, 2889
 3104, 3405, 3680, 3810, 3905, 3906, 4026, 4038, 4057, 4299, 4436, 4616, 5802
*Elset, elset=_surface_0_All_S1, internal
 1501, 1523, 1888, 1931, 1956, 1959, 2071, 2084, 2108, 2145, 2168, 2170, 2746, 2863, 2908, 3053
 3186, 3274, 3292, 3402, 3425, 3428, 3736, 3842, 3993, 4010, 4016, 4069, 4073, 4087, 4098, 4109
 4121, 4125, 4613, 5216, 5251, 5619, 5806, 6065
*Surface, type=ELEMENT, name=surface_0_All
_surface_0_All_S3, S3
_surface_0_All_S4, S4
_surface_0_All_S2, S2
_surface_0_All_S1, S1
*Elset, elset=_surface_1_All_S3, internal
   61,  108,  137,  147,  199,  207,  229,  237,  283,  328,  334,  340,  345,  361,  394,  417
  422,  462,  506,  526,  579,  582,  587,  600,  612,  628,  635,  654,  672,  682,  685,  691
  703,  736,  755,  766,  767,  768,  769,  771,  772,  783,  811,  821,  824,  863,  870,  872
  886,  890,  891,  911,  914,  920,  925,  934,  942,  965,  978,  980, 1013, 1014, 1021, 1040
 1090, 1102, 1127, 1150, 1154, 1171, 1175, 1209, 1219, 1221, 1250, 1251, 1252, 1255, 1259, 1261
 1268, 1269, 1276, 1293, 1300, 1311, 1370, 1376, 1382, 1392, 1411, 1454, 1455, 1457, 1461, 1504
 1517, 1529, 1530, 1555, 1556, 1592, 1593, 1596, 1611, 1613, 1636, 1639, 1643, 1650, 1655, 1656
 1660, 1670, 1671, 1676, 1679, 1681, 1682, 1684, 1685, 1687, 1688, 1693, 1695, 1697, 1699, 1729
 1732, 1740, 1741, 1742, 1747, 1751, 1763, 1769, 1791, 1792, 1793, 1794, 1816, 1824, 1843, 1845
 1851, 1866, 1887, 1890, 1900, 1923, 1926, 1950, 1966, 1995, 2002, 2012, 2013, 2026, 2034, 2055
 2067, 2076, 2086, 2099, 2112, 2115, 2129, 2131, 2133, 2140, 2143, 2158, 2173, 2175, 2178, 2182
 2186, 2215, 2244, 2245, 2247, 2253, 2260, 2263, 2265, 2272, 2273, 2277, 2292, 2295, 2319, 2334
 2337, 2338, 2339, 2358, 2359, 2370, 2372, 2383, 2386, 2399, 2400, 2421, 2429, 2430, 2449, 2451
 2452, 2457, 2487, 2516, 2531, 2563, 2572, 2577, 2590, 2608, 2622, 2634, 2649, 2657, 2658, 2663
 2665, 2666, 2670, 2672, 2721, 2725, 2726, 2732, 2749, 2755, 2768, 2769, 2775, 2784, 2785, 2796
 2798, 2807, 2810, 2815, 2818, 2853, 2871, 2891, 2895, 2896, 2897, 2900, 2909, 2922, 2929, 2934
 2958, 2962, 2971, 2979, 2986, 3011, 3013, 3015, 3024, 3037, 3040, 3045, 3047, 3048, 3052, 3055
 3084, 3106, 3117, 3119, 3120, 3126, 3128, 3132, 3135, 3140, 3147, 3160, 3166, 3169, 3179, 3181
 3187, 3188, 3190, 3193, 3196, 3199, 3216, 3220, 3232, 3233, 3236, 3245, 3253, 3264, 3266, 3277
 3278, 3299, 3302, 3303, 3309, 3314, 3349, 3361, 3363, 3368, 3371, 3408, 3411, 3413, 3418, 3421
** ... 40 like lines cut
*Elset, elset=_surface_1_All_S1, internal
  144,  171,  243,  395,  481,  504,  606,  633,  803,  816,  825,  932, 1054, 1057, 1080, 1088
 1415, 1610, 1623, 1640, 1667, 1754, 2020, 2041, 2083, 2127, 2220, 2396, 2435, 2445, 2501, 2647
 2750, 2918, 2987, 3068, 3122, 3198, 3203, 3848, 3851, 3856, 3910, 3955, 3977, 3979, 3980, 4018
 4042, 4043, 4077, 4116, 4196, 4249, 4265, 4268, 4330, 4364, 4366, 4368, 4382, 4388, 4396, 4407
 4447, 4449, 4454, 4489, 4498, 4512, 4516, 4544, 4568, 4569, 4573, 4583, 4589, 4597, 4614, 4647
 4652, 4657, 4658, 4679, 4689, 4692, 4734, 4744, 4747, 4768, 4789, 4809, 4836, 4847, 4869, 4873
 4877, 4881, 4921, 4935, 4939, 4948, 4952, 4956, 4958, 4960, 4997, 5006, 5062, 5065, 5071, 5075
 5091, 5101, 5103, 5144, 5155, 5159, 5163, 5178, 5181, 5185, 5186, 5189, 5208, 5213, 5262, 5274
 5281, 5287, 5289, 5292, 5306, 5311, 5381, 5403, 5410, 5412, 5416, 5440, 5445, 5470, 5476, 5479
 5514, 5517, 5530, 5565, 5581, 5584, 5585, 5592, 5593, 5616, 5617, 5621, 5648, 5666, 5669, 5684
 5693, 5706, 5734, 5748, 5749, 5759, 5770, 5772, 5781, 5783, 5804, 5824, 5829, 5834, 5847, 5904
 5920, 5941, 5947, 5948, 5967, 5974, 6004, 6009, 6028, 6029, 6035, 6047, 6049, 6070, 6082, 6107
 6137, 6155
*Elset, elset=_surface_1_All_S4, internal
  140,  171,  626,  698,  807,  836, 1009, 1078, 1082, 1134, 1149, 1229, 1389, 1514, 1599, 1668
 1998, 2367, 2387, 2397, 2450, 2486, 2551, 2596, 2625, 2633, 2676, 2719, 2739, 2782, 2923, 2932
 2966, 3018, 3086, 3182, 3202, 3219, 3281, 3331, 3336, 3350, 3449, 3505, 3670, 3857, 3866, 3876
 3892, 3914, 3922, 3924, 3954, 4012, 4014, 4055, 4081, 4090, 4102, 4148, 4151, 4156, 4183, 4207
 4235, 4250, 4251, 4257, 4270, 4272, 4322, 4328, 4343, 4351, 4364, 4377, 4402, 4426, 4456, 4467
 4558, 4579, 4582, 4622, 4623, 4635, 4667, 4673, 4681, 4702, 4723, 4758, 4787, 4788, 4803, 4811
 4818, 4829, 4839, 4851, 4862, 4880, 4930, 4932, 4934, 4938, 4943, 4949, 4953, 5057, 5082, 5088
 5098, 5107, 5120, 5140, 5146, 5153, 5156, 5167, 5187, 5193, 5196, 5199, 5209, 5214, 5215, 5305
 5313, 5316, 5319, 5341, 5384, 5385, 5386, 5388, 5446, 5481, 5482, 5483, 5488, 5582, 5588, 5614
 5618, 5632, 5649, 5686, 5712, 5717, 5736, 5761, 5764, 5766, 5768, 5769, 5777, 5778, 5787, 5799
 5804, 5828, 5846, 5859, 5866, 5898, 5914, 5923, 5930, 5932, 5933, 5942, 5957, 5963, 5985, 5989
 5996, 6017, 6034, 6054, 6071, 6165, 6166
*Elset, elset=_surface_1_All_S2, internal
   39,   91,  166,  631,  704,  751,  842,  998, 1088, 1134, 1204, 1445, 1633, 1634, 1674, 1728
 1750, 1760, 1967, 2109, 2259, 2396, 2437, 2488, 2518, 2720, 2790, 2851, 2928, 3019, 3026, 3109
 3206, 3283, 3311, 3378, 3501, 3608, 3609, 3643, 3652, 3853, 3867, 3877, 3878, 3913, 3927, 3951
 3974, 3976, 4015, 4018, 4025, 4054, 4056, 4070, 4080, 4105, 4142, 4157, 4174, 4179, 4191, 4204
 4208, 4244, 4263, 4267, 4271, 4279, 4303, 4327, 4348, 4358, 4382, 4397, 4399, 4400, 4408, 4414
 4419, 4441, 4442, 4445, 4446, 4448, 4455, 4458, 4459, 4461, 4462, 4474, 4475, 4481, 4496, 4518
 4533, 4545, 4567, 4580, 4581, 4621, 4623, 4651, 4660, 4665, 4666, 4669, 4672, 4674, 4682, 4685
 4688, 4717, 4745, 4761, 4762, 4766, 4771, 4800, 4801, 4804, 4835, 4858, 4862, 4864, 4867, 4872
 4884, 4895, 4905, 4907, 4923, 4937, 4946, 4955, 4963, 4968, 4969, 4977, 4998, 5035, 5040, 5067
 5084, 5099, 5105, 5111, 5132, 5157, 5158, 5179, 5199, 5204, 5205, 5217, 5220, 5234, 5295, 5304
 5317, 5339, 5389, 5405, 5415, 5417, 5423, 5432, 5436, 5471, 5472, 5492, 5501, 5516, 5538, 5563
 5568, 5594, 5598, 5609, 5610, 5668, 5692, 5700, 5702, 5751, 5753, 5774, 5785, 5823, 5827, 5856
 5868, 5888, 5916, 5925, 5939, 5946, 5960, 5968, 5969, 5973, 5975, 5978, 5983, 5994, 5995, 6005
 6010, 6030, 6059, 6072, 6105, 6114, 6135, 6144, 6147
*Surface, type=ELEMENT, name=surface_1_All
_surface_1_All_S3, S3
_surface_1_All_S1, S1
_surface_1_All_S4, S4
_surface_1_All_S2, S2
** Section: Rubber
*Solid Section, elset=RubberSet, material=Rubber
,
*End Part
**  
**
** ASSEMBLY
**
*Assembly, name=Assembly
**  
*Instance, name=final_model-1, part=final_model
*End Instance
**  
*End Assembly
** 
** MATERIALS
** 
*Material, name=Rubber
*Density
 1.08e-09,
*Hyperelastic, neo hooke
 0.24, 0.416667,       0.,       0.,       0.,       0.
** 
** BOUNDARY CONDITIONS
** 
** Name: BC-1 Type: Displacement/Rotation
*Boundary
final_model-1.surface_0_Bottom, 1, 1
final_model-1.surface_0_Bottom, 2, 2
final_model-1.surface_0_Bottom, 3, 3
final_model-1.surface_0_Bottom, 4, 4
final_model-1.surface_0_Bottom, 5, 5
final_model-1.surface_0_Bottom, 6, 6
