*Heading
** Job name: TopOptRun Model name: Model-1
** Generated by: Abaqus/CAE 2021
*Preprint, echo=NO, model=NO, history=NO, contact=NO
**
** PARTS
**
*Part, name=final_model
*Node
      1,   18.8821278,   9.17237091,           0.
      2,   18.2280273,   8.85463047,          70.
      3, -0.494521379,   1.84557903,          67.
      4, -0.494521379,   1.84557903,           3.
      5,   10.4797163,   5.94689894,           3.
      6,   10.4616899,   6.15290546,          67.
      7,  -10.4616899,  -6.15290546,          67.
      8,  -10.4797163,  -5.94689894,           3.
      9,   18.1796684,   10.4960346,           0.
     10,   17.3845673,   11.7662134,           0.
     11,   16.5008831,   12.9764347,           0.
     12,   15.5331135,   14.1205339,           0.
     13,   14.4861889,   15.1926746,           0.
     14,   13.3654451,    16.187397,           0.
     15,   12.1765976,   17.0996342,           0.
     16,   10.9256992,    17.924736,           0.
     17,   9.61912632,   18.6584969,           0.
     18,   8.26353645,   19.2971783,           0.
     19,   6.86583614,   19.8375225,           0.
     20,   5.43314981,   20.2767811,           0.
** ... 39364 like lines cut
*Element, type=C3D4
     1, 21530, 21531, 21532, 21533
     2, 21530, 21534, 21535, 21536
     3, 21530, 21537, 21538, 21539
     4, 21540, 21541, 21542, 21530
     5, 21530, 21533, 21538, 21531
     6, 21530, 21540, 21538, 21537
     7, 21530, 21540, 21531, 21538
     8, 21543, 21544, 21545, 21540
     9,  4831,  4833, 21546,  4835
    10, 21547, 21548, 21549, 21550
    11,  2710,  2709, 21551,  5740
    12, 21552, 21553, 21554, 21555
    13, 21552, 21556, 21557, 21554
    14, 21552, 21556, 21549, 21557
    15, 21548, 21553, 21558, 21552
    16, 21559, 21560, 21561, 21562
    17, 21559, 21563, 21562, 21561
    18, 21564, 21565, 21566, 21567
    19, 21568, 21569, 21570, 21571
    20, 21564, 21572, 21565, 21573
** ... 172317 like lines cut
*Nset, nset=surface_0_All
     1,     2,     9,    10,    11,    12,    13,    14,    15,    16,    17,    18,    19,    20,    21,    22
    23,    24,    25,    26,    27,    28,    29,    30,    31,    32,    33,    34,    35,    36,    37,    38
    39,    40,    41,    42,    43,    44,    45,    46,    47,    48,    49,    50,    51,    52,    53,    54
    55,    56,    57,    58,    59,    60,    61,    62,    63,    64,    65,    66,    67,    68,    69,    70
    71,    72,    73,    74,    75,    76,    77,    78,    79,    80,    81,    82,    83,    84,    85,    86
    87,    88,    89,    90,    91,    92,    93,    94,    95,    96,    97,    98,    99,   100,   101,   102
   103,   104,   105,   106,   107,   108,   109,   110,   111,   112,   113,   114,   115,   116,   117,   118
   119,   120,   121,   122,   123,   124,   125,   126,   127,   128,   129,   130,   131,   132,   133,   134
   135,   136,   137,   138,   139,   140,   141,   142,   143,   144,   145,   146,   147,   148,   149,   150
   151,   152,   153,   154,   155,   156,   157,   158,   159,   160,   161,   162,   163,   164,   165,   166
   167,   168,   169,   170,   171,   172,   173,   174,   175,   176,   177,   178,   179,   180,   181,   182
   183,   184,   185,   186,   187,   188,   189,   190,   191,   192,   193,   194,   195,   196,   197,   198
   199,   200,   201,   202,   203,   204,   205,   206,   207,   208,   209,   210,   211,   212,   213,   214
   215,   216,   217,   218,   219,   220,   221,   222,   223,   224,   225,   226,   227,   228,   229,   230
   231,   232,   233,   234,   235,   236,   237,   238,   239,   240,   241,   242,   243,   244,   245,   246
   247,   248,   249,   250,   251,   252,   253,   254,   255,   256,   257,   258,   259,   260,   261,   262
   263,   264,   265,   266,   267,   268,   269,   270,   271,   272,   273,   274,   275,   276,   277,   278
   279,   280,   281,   282,   283,   284,   285,   286,   287,   288,   289,   290,   291,   292,   293,   294
   295,   296,   297,   298,   299,   300,   301,   633,   634,   635,   636,   637,   638,   639,   640,   641
   642,   643,   644,   645,   646,   647,   648,   649,   650,   651,   652,   653,   654,   655,   656,   657
** ... 692 like lines cut
*Elset, elset=surface_0_All
      9,     11,    144,    319,    374,    497,    562,    565,    606,    608,    694,    695,    697,    704,    776,    795
    804,    844,    899,    939,    969,   1016,   1030,   1058,   1085,   1097,   1108,   1156,   1192,   1281,   1310,   1376
   1429,   1433,   1460,   1464,   1499,   1509,   1541,   1606,   1629,   1739,   1843,   1849,   1858,   1871,   1874,   1882
   1922,   1928,   1967,   2014,   2092,   2123,   2167,   2181,   2186,   2200,   2317,   2396,   2398,   2447,   2560,   2561
   2626,   2692,   2701,   2841,   2846,   3083,   3129,   3156,   3200,   3202,   3254,   3256,   3284,   3287,   3302,   3310
   3321,   3408,   3410,   3533,   3758,   3909,   3927,   3985,   4013,   4092,   4165,   4188,   4379,   4389,   4440,   4451
   4496,   4552,   4613,   4659,   4674,   4708,   4742,   4769,   4959,   5005,   5152,   5260,   5276,   5294,   5337,   5399
   5407,   5446,   5541,   5706,   5722,   5744,   5774,   5791,   5792,   5794,   5821,   5824,   5885,   6043,   6058,   6230
   6236,   6317,   6409,   6426,   6430,   6474,   6476,   6591,   6607,   6767,   6802,   6823,   6882,   6932,   6976,   6978
   7037,   7107,   7215,   7218,   7220,   7223,   7224,   7259,   7297,   7379,   7382,   7600,   7728,   7743,   7818,   7936
   7987,   7992,   8012,   8229,   8296,   8350,   8385,   8414,   8416,   8434,   8485,   8508,   8542,   8706,   8742,   8744
   8811,   8815,   8850,   8853,   8865,   8867,   9024,   9097,   9119,   9280,   9306,   9343,   9344,   9454,   9459,   9475
   9659,   9661,   9666,   9726,   9852,   9918,   9966,  10013,  10029,  10042,  10062,  10065,  10152,  10273,  10400,  10422
  10631,  10638,  10709,  10716,  10739,  10742,  10744,  10757,  10783,  10787,  10924,  10939,  10975,  10991,  11065,  11076
  11145,  11234,  11257,  11289,  11452,  11467,  11500,  11604,  11608,  11611,  11628,  11729,  11775,  11817,  11946,  12070
  12102,  12108,  12114,  12117,  12140,  12196,  12216,  12276,  12355,  12400,  12614,  12696,  12706,  12730,  12743,  12749
  12751,  12763,  12767,  12791,  12799,  12811,  12818,  12822,  12823,  12825,  12826,  12831,  12841,  12844,  12845,  12859
  12862,  12864,  12868,  12877,  12882,  12883,  12884,  12891,  12892,  12900,  12904,  12910,  12913,  12916,  12917,  12919
  12927,  12930,  12934,  12935,  12937,  12947,  12948,  12949,  12950,  12954,  12957,  12961,  12967,  12975,  12988,  12993
  13003,  13011,  13014,  13020,  13021,  13022,  13025,  13028,  13034,  13043,  13046,  13048,  13054,  13062,  13070,  13082
** ... 1398 like lines cut
*Nset, nset=surface_0_Head
     2,   218,   219,   220,   221,   222,   223,   224,   225,   226,   227,   228,   229,   230,   231,   232
   233,   234,   235,   236,   237,   238,   239,   240,   241,   242,   243,   244,   245,   246,   247,   248
   249,   250,   251,   252,   253,   254,   255,   256,   257,   258,   259,   260,   261,   262,   263,   264
   265,   266,   267,   268,   269,   270,   271,   272,   273,   274,   275,   276,   277,   278,   279,   280
   281,   282,   283,   284,   285,   286,   287,   288,   289,   290,   291,   292,   293,   294,   295,   296
   297,   298,   299,   300,   301, 11105, 11106, 11107, 11108, 11109, 11110, 11111, 11112, 11113, 11114, 11115
 11116, 11117, 11118, 11119, 11120, 11121, 11122, 11123, 11124, 11125, 11126, 11127, 11128, 11129, 11130, 11131
 11132, 11133, 11134, 11135, 11136, 11137, 11138, 11139, 11140, 11141, 11142, 11143, 11144, 11145, 11146, 11147
 11148, 11149, 11150, 11151, 11152, 11153, 11154, 11155, 11156, 11157, 11158, 11159, 11160, 11161, 11162, 11163
 11164, 11165, 11166, 11167, 11168, 11169, 11170, 11171, 11172, 11173, 11174, 11175, 11176, 11177, 11178, 11179
 11180, 11181, 11182, 11183, 11184, 11185, 11186, 11187, 11188, 11189, 11190, 11191, 11192, 11193, 11194, 11195
 11196, 11197, 11198, 11199, 11200, 11201, 11202, 11203, 11204, 11205, 11206, 11207, 11208, 11209, 11210, 11211
 11212, 11213, 11214, 11215, 11216, 11217, 11218, 11219, 11220, 11221, 11222, 11223, 11224, 11225, 11226, 11227
 11228, 11229, 11230, 11231, 11232, 11233, 11234, 11235, 11236, 11237, 11238, 11239, 11240, 11241, 11242, 11243
 11244, 11245, 11246, 11247, 11248, 11249, 11250, 11251, 11252, 11253, 11254, 11255, 11256, 11257, 11258, 11259
 11260, 11261, 11262, 11263, 11264, 11265, 11266, 11267, 11268, 11269, 11270, 11271, 11272, 11273, 11274, 11275
 11276, 11277, 11278, 11279, 11280, 11281, 11282, 11283, 11284, 11285, 11286, 11287, 11288, 11289, 11290, 11291
 11292, 11293, 11294, 11295, 11296, 11297, 11298, 11299, 11300, 11301, 11302, 11303, 11304, 11305, 11306, 11307
 11308, 11309, 11310, 11311, 11312, 11313, 11314, 11315, 11316, 11317, 11318, 11319, 11320, 11321, 11322, 11323
 11324, 11325, 11326, 11327, 11328, 11329, 11330, 11331, 11332, 11333, 11334, 11335, 11336, 11337, 11338, 11339
** ... 24 like lines cut
*Elset, elset=surface_0_Head
   1874,   2317,   3533,   3985,   4188,   6430,   6802,   9097,   9966,  11065,  11946,  12114,  12117,  12730,  13003,  13020
  13295,  13931,  13996,  14018,  14032,  14044,  14242,  14278,  14937,  14983,  15112,  15116,  15134,  15146,  15156,  15158
  15180,  15188,  15196,  15197,  15205,  15209,  15211,  15218,  15324,  15331,  15335,  15340,  15516,  15532,  15731,  15851
  16105,  16118,  16120,  16124,  16170,  16313,  16323,  16324,  16500,  16502,  16666,  16709,  16717,  16866,  16879,  16881
  18570,  19186,  23600,  23601,  23862,  24618,  24647,  25695,  27532,  28583,  29163,  29308,  29346,  29413,  29428,  29452
  29461,  29463,  29495,  29502,  29580,  29632,  29650,  29658,  29710,  29716,  29806,  29810,  29819,  29854,  29930,  29982
  29989,  30018,  30124,  30179,  30185,  30197,  30213,  30221,  30266,  30277,  30282,  30288,  30324,  30360,  30468,  30473
  30513,  30534,  30540,  30541,  30574,  30586,  30612,  30740,  30748,  30788,  30790,  30793,  30864,  30993,  31004,  31016
  31042,  31048,  31089,  31099,  31126,  31164,  31205,  31245,  31329,  31343,  31344,  31351,  31402,  31509,  31556,  31614
  31717,  31755,  31767,  31791,  31800,  31804,  31877,  31935,  31955,  31963,  31970,  31994,  31998,  32021,  32025,  32052
  32092,  32094,  32095,  32101,  32128,  32139,  32156,  32182,  32277,  32278,  32279,  32284,  32301,  32351,  32371,  32406
  32444,  32464,  32695,  32720,  32740,  32760,  32809,  32829,  32851,  32857,  32859,  32884,  32930,  32942,  32950,  32962
  37522,  37534,  37969,  38025,  38074,  38083,  38160,  38186,  38317,  38463,  38481,  38617,  38722,  38745,  38748,  38749
  38768,  39640,  39750,  39834,  42866,  43077,  44502,  44558,  44598,  44621,  45227,  45263,  45270,  45529,  47001,  47169
  47273,  47343,  47380,  47556,  47614,  50779,  51058,  51059,  51744,  51752,  57864,  58161,  58551,  59194,  62171,  63759
  63764,  66755,  66906,  66920,  66962,  67011,  67016,  67160,  67169,  67190,  67308,  67310,  68196,  68277,  68278,  68334
  68490,  68782,  70097,  71398,  71399,  71423,  71720,  71790,  71892,  71930,  71936,  72014,  72018,  72026,  72119,  72127
  72136,  72141,  72252,  72291,  72292,  72299,  72311,  72317,  72418,  72426,  74166,  76189,  76672,  77275,  77692,  77693
  77785,  83408,  83419,  83420,  83425,  83440,  83443,  83457,  83472,  83477,  83478,  83479,  83507,  83508,  83509,  83511
  83522,  83527,  83529,  83531,  83535,  83536,  83543,  83565,  83567,  83571,  83586,  83593,  83609,  83623,  83637,  83653
** ... 62 like lines cut
*Nset, nset=surface_0_Bottom
    1,    9,   10,   11,   12,   13,   14,   15,   16,   17,   18,   19,   20,   21,   22,   23
   24,   25,   26,   27,   28,   29,   30,   31,   32,   33,   34,   35,   36,   37,   38,   39
   40,   41,   42,   43,   44,   45,   46,   47,   48,   49,   50,   51,   52,   53,   54,   55
   56,   57,   58,   59,   60,   61,   62,   63,   64,   65,   66,   67,   68,   69,   70,   71
   72,   73,   74,   75,   76,   77,   78,   79,   80,   81,   82,   83,   84,   85,   86,   87
   88,   89,   90,   91,   92,   93,   94,   95,  633,  634,  635,  636,  637,  638,  639,  640
  641,  642,  643,  644,  645,  646,  647,  648,  649,  650,  651,  652,  653,  654,  655,  656
  657,  658,  659,  660,  661,  662,  663,  664,  665,  666,  667,  668,  669,  670,  671,  672
  673,  674,  675,  676,  677,  678,  679,  680,  681,  682,  683,  684,  685,  686,  687,  688
  689,  690,  691,  692,  693,  694,  695,  696,  697,  698,  699,  700,  701,  702,  703,  704
  705,  706,  707,  708,  709,  710,  711,  712,  713,  714,  715,  716,  717,  718,  719,  720
  721,  722,  723,  724,  725,  726,  727,  728,  729,  730,  731,  732,  733,  734,  735,  736
  737,  738,  739,  740,  741,  742,  743,  744,  745,  746,  747,  748,  749,  750,  751,  752
  753,  754,  755,  756,  757,  758,  759,  760,  761,  762,  763,  764,  765,  766,  767,  768
  769,  770,  771,  772,  773,  774,  775,  776,  777,  778,  779,  780,  781,  782,  783,  784
  785,  786,  787,  788,  789,  790,  791,  792,  793,  794,  795,  796,  797,  798,  799,  800
  801,  802,  803,  804,  805,  806,  807,  808,  809,  810,  811,  812,  813,  814,  815,  816
  817,  818,  819,  820,  821,  822,  823,  824,  825,  826,  827,  828,  829,  830,  831,  832
  833,  834,  835,  836,  837,  838,  839,  840,  841,  842,  843,  844,  845,  846,  847,  848
  849,  850,  851,  852,  853,  854,  855,  856,  857,  858,  859,  860,  861,  862,  863,  864
** ... 27 like lines cut
*Elset, elset=surface_0_Bottom
   2398,   3156,   4674,   5722,   5821,   7743,   7992,   8742,   9661,  10991,  11817,  12825,  12826,  12831,  12841,  12845
  12859,  12862,  12864,  12868,  12884,  12900,  12904,  12910,  12916,  12927,  12948,  12957,  12961,  12975,  13352,  13596
  13617,  13637,  13648,  13649,  13651,  13676,  13679,  13681,  13692,  13703,  13704,  13791,  13803,  13841,  13857,  13858
  13862,  13884,  13901,  13905,  14392,  14466,  14527,  14532,  14571,  14579,  14600,  14611,  14619,  14632,  14634,  14643
  14648,  14652,  14656,  14808,  14822,  14824,  14836,  14859,  15049,  15078,  15229,  15237,  15278,  15280,  15283,  15412
  15443,  15448,  15604,  15615,  15960,  16252,  16303,  16480,  16634,  16635,  16831,  16845,  16847,  16858,  16927,  16951
  16958,  16994,  16997,  17019,  17020,  17023,  17027,  17033,  17037,  17049,  17061,  17068,  17069,  17071,  17114,  17118
  17141,  17145,  17146,  17166,  17178,  17183,  17185,  17188,  17192,  17194,  17207,  17208,  17210,  17220,  17236,  17257
  17258,  17272,  17274,  17321,  17322,  17344,  17363,  17371,  17372,  17374,  17382,  17385,  17394,  17400,  17412,  17422
  17427,  17429,  17430,  17431,  17433,  17444,  17445,  17449,  17488,  17490,  17505,  17507,  17513,  17520,  17524,  17525
  17526,  17530,  17543,  17553,  17555,  17558,  17568,  17573,  17574,  17575,  17585,  17605,  17606,  17629,  17632,  17636
  17642,  17644,  17650,  17656,  17670,  17692,  17694,  17698,  17701,  17702,  17707,  17708,  17709,  17712,  17713,  17714
  17720,  17721,  17733,  17734,  17749,  17752,  17756,  17763,  17772,  17779,  17780,  17784,  17787,  17791,  17794,  17798
  17799,  17802,  17813,  17815,  17819,  17822,  17831,  17836,  17847,  17854,  17867,  17871,  17873,  17880,  17889,  17903
  17917,  17918,  17923,  17939,  17946,  17953,  17954,  17971,  17972,  17977,  17982,  17989,  17992,  17993,  18037,  18043
  18051,  18052,  18065,  18068,  18072,  18076,  18080,  18090,  18097,  18103,  18104,  18105,  18107,  18117,  18120,  18126
  18127,  18135,  18138,  18144,  18154,  18160,  18161,  18167,  18168,  18169,  18177,  18181,  18187,  18188,  18199,  18214
  18217,  18227,  18235,  18238,  18246,  18247,  18252,  18256,  18257,  18264,  18278,  18279,  18280,  18283,  18289,  18292
  18301,  18309,  18315,  18322,  18324,  18332,  18342,  18345,  18349,  18356,  18362,  18368,  18387,  18400,  18419,  18425
  18427,  18437,  18442,  18448,  18451,  18452,  18453,  18459,  18463,  18470,  18474,  18482,  18490,  18498,  18499,  18515
** ... 67 like lines cut
*Nset, nset=surface_0_Lateral
     1,     2,     9,    10,    11,    12,    13,    14,    15,    16,    17,    18,    19,    20,    21,    22
    23,    24,    25,    26,    27,    28,    29,    30,    31,    32,    33,    34,    35,    36,    37,    38
    39,    40,    41,    42,    43,    44,    45,    46,    47,    48,    49,    50,    51,    52,    53,    54
    55,    56,    57,    58,    59,    60,    61,    62,    63,    64,    65,    66,    67,    68,    69,    70
    71,    72,    73,    74,    75,    76,    77,    78,    79,    80,    81,    82,    83,    84,    85,    86
    87,    88,    89,    90,    91,    92,    93,    94,    95,    96,    97,    98,    99,   100,   101,   102
   103,   104,   105,   106,   107,   108,   109,   110,   111,   112,   113,   114,   115,   116,   117,   118
   119,   120,   121,   122,   123,   124,   125,   126,   127,   128,   129,   130,   131,   132,   133,   134
   135,   136,   137,   138,   139,   140,   141,   142,   143,   144,   145,   146,   147,   148,   149,   150
   151,   152,   153,   154,   155,   156,   157,   158,   159,   160,   161,   162,   163,   164,   165,   166
   167,   168,   169,   170,   171,   172,   173,   174,   175,   176,   177,   178,   179,   180,   181,   182
   183,   184,   185,   186,   187,   188,   189,   190,   191,   192,   193,   194,   195,   196,   197,   198
   199,   200,   201,   202,   203,   204,   205,   206,   207,   208,   209,   210,   211,   212,   213,   214
   215,   216,   217,   218,   219,   220,   221,   222,   223,   224,   225,   226,   227,   228,   229,   230
   231,   232,   233,   234,   235,   236,   237,   238,   239,   240,   241,   242,   243,   244,   245,   246
   247,   248,   249,   250,   251,   252,   253,   254,   255,   256,   257,   258,   259,   260,   261,   262
   263,   264,   265,   266,   267,   268,   269,   270,   271,   272,   273,   274,   275,   276,   277,   278
   279,   280,   281,   282,   283,   284,   285,   286,   287,   288,   289,   290,   291,   292,   293,   294
   295,   296,   297,   298,   299,   300,   301,  1283,  1284,  1285,  1286,  1287,  1288,  1289,  1290,  1291
  1292,  1293,  1294,  1295,  1296,  1297,  1298,  1299,  1300,  1301,  1302,  1303,  1304,  1305,  1306,  1307
** ... 613 like lines cut
*Elset, elset=surface_0_Lateral
      9,     11,    144,    319,    374,    497,    562,    565,    606,    608,    694,    695,    697,    704,    776,    795
    804,    844,    899,    939,    969,   1016,   1030,   1058,   1085,   1097,   1108,   1156,   1192,   1281,   1310,   1376
   1429,   1433,   1460,   1464,   1499,   1509,   1541,   1606,   1629,   1739,   1843,   1849,   1858,   1871,   1882,   1922
   1928,   1967,   2014,   2092,   2123,   2167,   2181,   2186,   2200,   2396,   2447,   2560,   2561,   2626,   2692,   2701
   2841,   2846,   3083,   3129,   3200,   3202,   3254,   3256,   3284,   3287,   3302,   3310,   3321,   3408,   3410,   3758
   3909,   3927,   4013,   4092,   4165,   4379,   4389,   4440,   4451,   4496,   4552,   4613,   4659,   4708,   4742,   4769
   4959,   5005,   5152,   5260,   5276,   5294,   5337,   5399,   5407,   5446,   5541,   5706,   5744,   5774,   5791,   5792
   5794,   5824,   5885,   6043,   6058,   6230,   6236,   6317,   6409,   6426,   6474,   6476,   6591,   6607,   6767,   6823
   6882,   6932,   6976,   6978,   7037,   7107,   7215,   7218,   7220,   7223,   7224,   7259,   7297,   7379,   7382,   7600
   7728,   7818,   7936,   7987,   8012,   8229,   8296,   8350,   8385,   8414,   8416,   8434,   8485,   8508,   8542,   8706
   8744,   8811,   8815,   8850,   8853,   8865,   8867,   9024,   9097,   9119,   9280,   9306,   9343,   9344,   9454,   9459
   9475,   9659,   9666,   9726,   9852,   9918,  10013,  10029,  10042,  10062,  10065,  10152,  10273,  10400,  10422,  10631
  10638,  10709,  10716,  10739,  10742,  10744,  10757,  10783,  10787,  10924,  10939,  10975,  11076,  11145,  11234,  11257
  11289,  11452,  11467,  11500,  11604,  11608,  11611,  11628,  11729,  11775,  12070,  12102,  12108,  12114,  12140,  12196
  12216,  12276,  12355,  12400,  12614,  12696,  12706,  12743,  12749,  12751,  12763,  12767,  12791,  12799,  12811,  12818
  12822,  12823,  12844,  12877,  12882,  12883,  12891,  12892,  12913,  12917,  12919,  12930,  12934,  12935,  12937,  12947
  12949,  12950,  12954,  12967,  12988,  12993,  13011,  13014,  13021,  13022,  13025,  13028,  13034,  13043,  13046,  13048
  13054,  13062,  13070,  13082,  13087,  13101,  13102,  13103,  13107,  13115,  13129,  13133,  13138,  13141,  13143,  13145
  13146,  13148,  13155,  13161,  13170,  13171,  13178,  13180,  13182,  13186,  13193,  13205,  13206,  13224,  13239,  13241
  13246,  13247,  13251,  13252,  13257,  13262,  13284,  13285,  13292,  13300,  13310,  13316,  13318,  13326,  13337,  13344
** ... 1233 like lines cut
*Nset, nset=surface_1_All
     7,     8,   495,   496,   497,   498,   499,   500,   501,   502,   503,   504,   505,   506,   507,   508
   509,   510,   511,   512,   513,   514,   515,   516,   517,   518,   519,   520,   521,   522,   523,   524
   525,   526,   527,   528,   529,   530,   531,   532,   533,   534,   535,   536,   537,   538,   539,   540
   541,   542,   543,   544,   545,   546,   547,   548,   549,   550,   551,   552,   553,   554,   555,   556
   557,   558,   559,   560,   561,   562,   563,   564,   565,   566,   567,   568,   569,   570,   571,   572
   573,   574,   575,   576,   577,   578,   579,   580,   581,   582,   583,   584,   585,   586,   587,   588
   589,   590,   591,   592,   593,   594,   595,   596,   597,   598,   599,   600,   601,   602,   603,   604
   605,   606,   607,   608,   609,   610,   611,   612,   613,   614,   615,   616,   617,   618,   619,   620
   621,   622,   623,   624,   625,   626,   627,   628,   629,   630,   631,   632, 16745, 16746, 16747, 16748
 16749, 16750, 16751, 16752, 16753, 16754, 16755, 16756, 16757, 16758, 16759, 16760, 16761, 16762, 16763, 16764
 16765, 16766, 16767, 16768, 16769, 16770, 16771, 16772, 16773, 16774, 16775, 16776, 16777, 16778, 16779, 16780
 16781, 16782, 16783, 16784, 16785, 16786, 16787, 16788, 16789, 16790, 16791, 16792, 16793, 16794, 16795, 16796
 16797, 16798, 16799, 16800, 16801, 16802, 16803, 16804, 16805, 16806, 16807, 16808, 16809, 16810, 16811, 16812
 16813, 16814, 16815, 16816, 16817, 16818, 16819, 16820, 16821, 16822, 16823, 16824, 16825, 16826, 16827, 16828
 16829, 16830, 16831, 16832, 16833, 16834, 16835, 16836, 16837, 16838, 16839, 16840, 16841, 16842, 16843, 16844
 16845, 16846, 16847, 16848, 16849, 16850, 16851, 16852, 16853, 16854, 16855, 16856, 16857, 16858, 16859, 16860
 16861, 16862, 16863, 16864, 16865, 16866, 16867, 16868, 16869, 16870, 16871, 16872, 16873, 16874, 16875, 16876
 16877, 16878, 16879, 16880, 16881, 16882, 16883, 16884, 16885, 16886, 16887, 16888, 16889, 16890, 16891, 16892
 16893, 16894, 16895, 16896, 16897, 16898, 16899, 16900, 16901, 16902, 16903, 16904, 16905, 16906, 16907, 16908
 16909, 16910, 16911, 16912, 16913, 16914, 16915, 16916, 16917, 16918, 16919, 16920, 16921, 16922, 16923, 16924
** ... 288 like lines cut
*Elset, elset=surface_1_All
    131,    223,    239,    276,    551,    738,    764,    797,    809,   1078,   1160,   1230,   1341,   1437,   1444,   1483
   1502,   1676,   1832,   1901,   1920,   1982,   1983,   2192,   2327,   2330,   2350,   2535,   2607,   2682,   2840,   2889
   2894,   3015,   3043,   3049,   3138,   3319,   3482,   3685,   3845,   3977,   4143,   4170,   4212,   4222,   4225,   4317
   4392,   5503,   5849,   6099,   6232,   6773,   6842,   6865,   6929,   7051,   7348,   7400,   7465,   7655,   7839,   7893
   7940,   8310,   8320,   8590,   8606,   8951,   8985,   9239,   9253,   9267,   9398,   9461,   9518,   9540,   9546,   9555
   9796,   9802,   9805,   9860,   9890,   9936,  10024,  10141,  10159,  10343,  10349,  10502,  10505,  10586,  10673,  10821
  11077,  11078,  11254,  11448,  11690,  11724,  11743,  11901,  11930,  11993,  11995,  12029,  12080,  12189,  12384,  12445
  12584,  12673,  12744,  12787,  12816,  12843,  12876,  12936,  12958,  12991,  12994,  13032,  13190,  13311,  13325,  13329
  13373,  13421,  13432,  13468,  13554,  13565,  13598,  13694,  13774,  13795,  13810,  13811,  13883,  13893,  13894,  13899
  13939,  13977,  13993,  14133,  14134,  14179,  14186,  14253,  14311,  14412,  14415,  14418,  14424,  14441,  14452,  14513
  14535,  14536,  14561,  14605,  14640,  14787,  14788,  14813,  14870,  14875,  14936,  14998,  15085,  15142,  15165,  15230
  15253,  15271,  15309,  15328,  15333,  15341,  15345,  15432,  15487,  15501,  15574,  15595,  15658,  15669,  15839,  15854
  15958,  15973,  16012,  16062,  16086,  16150,  16166,  16171,  16175,  16196,  16203,  16214,  16216,  16223,  16236,  16242
  16247,  16259,  16260,  16285,  16298,  16306,  16319,  16325,  16326,  16332,  16334,  16351,  16353,  16366,  16377,  16387
  16388,  16402,  16416,  16420,  16444,  16466,  16476,  16484,  16496,  16523,  16527,  16543,  16556,  16563,  16568,  16578
  16591,  16595,  16618,  16649,  16664,  16670,  16684,  16688,  16690,  16695,  16704,  16705,  16714,  16716,  16718,  16733
  16764,  16765,  16768,  16781,  16795,  16821,  16829,  16832,  16835,  16854,  16864,  16901,  16902,  16921,  16938,  16969
  16972,  17098,  17108,  17167,  17199,  17297,  17442,  17498,  17503,  17538,  17691,  17705,  18251,  18531,  18540,  18650
  18809,  18965,  18975,  19021,  19024,  19049,  19199,  19200,  19257,  19278,  19381,  19397,  19402,  19590,  19600,  19640
  19737,  19763,  19860,  19911,  19969,  20088,  20272,  20273,  20276,  20302,  20333,  20417,  20448,  20456,  20474,  20566
** ... 596 like lines cut
*Nset, nset=surface_1_Head
     7,   495,   496,   497,   498,   499,   500,   501,   502,   503,   504,   505,   506,   507,   508,   509
   510,   511,   512,   513,   514,   515,   516,   517,   518,   519, 16745, 16746, 16747, 16748, 16749, 16750
 16751, 16752, 16753, 16754, 16755, 16756, 16757, 16758, 16759, 16760, 16761, 16762, 16763, 16764, 16765, 16766
 16767, 16768, 16769, 16770, 16771, 16772, 16773, 16774, 16775, 16776, 16777, 16778, 16779, 16780, 16781, 16782
 16783, 16784, 16785, 16786, 16787, 16788, 16789, 16790, 16791, 16792, 16793
*Elset, elset=surface_1_Head
  15165,  16326,  16664,  16684,  22155,  31230,  31397,  31618,  40043,  44554,  52162,  66864,  66880,  66933,  67070,  67071
  84622,  84751,  85120,  85816,  85907,  86135,  86190,  86532,  86553,  86564,  86616,  88971,  89071,  90512, 103710, 110052
 110108, 110201, 111567, 115219, 117515, 119690, 121178, 121181, 121183, 121208, 121214, 121233, 121236, 121239, 121241, 121243
 121248, 121254, 121258, 121266, 121272, 121281, 121285, 121289, 121297, 121300, 121314, 121336, 121343, 121345, 121349, 121354
 121374, 121395, 121396, 121401, 121415, 121437, 121438, 121441, 121464, 121471, 121476, 121486, 121493, 121500, 121506, 121520
 121528, 121553, 121557, 121572, 121573, 121583, 121584, 121585, 121594, 121597, 121600, 121601, 121623, 121624, 121627, 121630
 121635, 121636, 121645, 121647, 121649, 121650, 121651, 121661, 142920, 153359, 153362, 153678, 154812, 154816, 155315, 155317
 156691, 156692, 159482, 159485, 159934, 162172, 162579, 164943, 168335, 168336
*Nset, nset=surface_1_Bottom
     8,   609,   610,   611,   612,   613,   614,   615,   616,   617,   618,   619,   620,   621,   622,   623
   624,   625,   626,   627,   628,   629,   630,   631,   632, 21483, 21484, 21485, 21486, 21487, 21488, 21489
 21490, 21491, 21492, 21493, 21494, 21495, 21496, 21497, 21498, 21499, 21500, 21501, 21502, 21503, 21504, 21505
 21506, 21507, 21508, 21509, 21510, 21511, 21512, 21513, 21514, 21515, 21516, 21517, 21518, 21519, 21520, 21521
 21522, 21523, 21524, 21525, 21526, 21527, 21528, 21529
*Elset, elset=surface_1_Bottom
    223,    239,    764,    797,    809,   1078,   1437,   1676,   1832,   1901,   1920,   2535,   2682,   2840,   2889,   3138
   3319,   3482,   3685,   3845,   3977,   4170,   4212,   4317,   5849,   6232,   6865,   7051,   8310,   8320,   8606,   9267
   9461,   9518,   9860,   9890,  10343,  10349,  10505,  11077,  11078,  11448,  11993,  12816,  12958,  13565,  13598,  16835
  17297,  18965,  18975,  19200,  19257,  19397,  19402,  19860,  19969,  20448,  21708,  21735,  21829,  21971,  22240,  49318
  63627,  72174,  73800,  78699,  78720,  86736,  99633, 116739, 127288, 127335, 127360, 127448, 127460, 127964, 128074, 128077
 128188, 128190, 128212, 128214, 128231, 128269, 128273, 128276, 128459, 128632, 128650, 128669, 128670, 128671, 128716, 128876
 135505, 137286, 137830, 146072, 150776, 150778, 151410, 155947, 155950, 157472, 160017, 163240, 163241, 166173, 166175, 167245
 167249, 168286, 170903, 170904, 170910
*Nset, nset=surface_1_Lateral
     7,     8,   495,   496,   497,   498,   499,   500,   501,   502,   503,   504,   505,   506,   507,   508
   509,   510,   511,   512,   513,   514,   515,   516,   517,   518,   519,   520,   521,   522,   523,   524
   525,   526,   527,   528,   529,   530,   531,   532,   533,   534,   535,   536,   537,   538,   539,   540
   541,   542,   543,   544,   545,   546,   547,   548,   549,   550,   551,   552,   553,   554,   555,   556
   557,   558,   559,   560,   561,   562,   563,   564,   565,   566,   567,   568,   569,   570,   571,   572
   573,   574,   575,   576,   577,   578,   579,   580,   581,   582,   583,   584,   585,   586,   587,   588
   589,   590,   591,   592,   593,   594,   595,   596,   597,   598,   599,   600,   601,   602,   603,   604
   605,   606,   607,   608,   609,   610,   611,   612,   613,   614,   615,   616,   617,   618,   619,   620
   621,   622,   623,   624,   625,   626,   627,   628,   629,   630,   631,   632, 16794, 16795, 16796, 16797
 16798, 16799, 16800, 16801, 16802, 16803, 16804, 16805, 16806, 16807, 16808, 16809, 16810, 16811, 16812, 16813
 16814, 16815, 16816, 16817, 16818, 16819, 16820, 16821, 16822, 16823, 16824, 16825, 16826, 16827, 16828, 16829
 16830, 16831, 16832, 16833, 16834, 16835, 16836, 16837, 16838, 16839, 16840, 16841, 16842, 16843, 16844, 16845
 16846, 16847, 16848, 16849, 16850, 16851, 16852, 16853, 16854, 16855, 16856, 16857, 16858, 16859, 16860, 16861
 16862, 16863, 16864, 16865, 16866, 16867, 16868, 16869, 16870, 16871, 16872, 16873, 16874, 16875, 16876, 16877
 16878, 16879, 16880, 16881, 16882, 16883, 16884, 16885, 16886, 16887, 16888, 16889, 16890, 16891, 16892, 16893
 16894, 16895, 16896, 16897, 16898, 16899, 16900, 16901, 16902, 16903, 16904, 16905, 16906, 16907, 16908, 16909
 16910, 16911, 16912, 16913, 16914, 16915, 16916, 16917, 16918, 16919, 16920, 16921, 16922, 16923, 16924, 16925
 16926, 16927, 16928, 16929, 16930, 16931, 16932, 16933, 16934, 16935, 16936, 16937, 16938, 16939, 16940, 16941
 16942, 16943, 16944, 16945, 16946, 16947, 16948, 16949, 16950, 16951, 16952, 16953, 16954, 16955, 16956, 16957
 16958, 16959, 16960, 16961, 16962, 16963, 16964, 16965, 16966, 16967, 16968, 16969, 16970, 16971, 16972, 16973
** ... 282 like lines cut
*Elset, elset=surface_1_Lateral
    131,    276,    551,    738,   1160,   1230,   1341,   1444,   1483,   1502,   1982,   1983,   2192,   2327,   2330,   2350
   2607,   2894,   3015,   3043,   3049,   4143,   4222,   4225,   4392,   5503,   6099,   6773,   6842,   6929,   7348,   7400
   7465,   7655,   7839,   7893,   7940,   8590,   8951,   8985,   9239,   9253,   9398,   9540,   9546,   9555,   9796,   9802
   9805,   9936,  10024,  10141,  10159,  10502,  10586,  10673,  10821,  11254,  11690,  11724,  11743,  11901,  11930,  11995
  12029,  12080,  12189,  12384,  12445,  12584,  12673,  12744,  12787,  12843,  12876,  12936,  12991,  12994,  13032,  13190
  13311,  13325,  13329,  13373,  13421,  13432,  13468,  13554,  13694,  13774,  13795,  13810,  13811,  13883,  13893,  13894
  13899,  13939,  13977,  13993,  14133,  14134,  14179,  14186,  14253,  14311,  14412,  14415,  14418,  14424,  14441,  14452
  14513,  14535,  14536,  14561,  14605,  14640,  14787,  14788,  14813,  14870,  14875,  14936,  14998,  15085,  15142,  15230
  15253,  15271,  15309,  15328,  15333,  15341,  15345,  15432,  15487,  15501,  15574,  15595,  15658,  15669,  15839,  15854
  15958,  15973,  16012,  16062,  16086,  16150,  16166,  16171,  16175,  16196,  16203,  16214,  16216,  16223,  16236,  16242
  16247,  16259,  16260,  16285,  16298,  16306,  16319,  16325,  16332,  16334,  16351,  16353,  16366,  16377,  16387,  16388
  16402,  16416,  16420,  16444,  16466,  16476,  16484,  16496,  16523,  16527,  16543,  16556,  16563,  16568,  16578,  16591
  16595,  16618,  16649,  16670,  16688,  16690,  16695,  16704,  16705,  16714,  16716,  16718,  16733,  16764,  16765,  16768
  16781,  16795,  16821,  16829,  16832,  16854,  16864,  16901,  16902,  16921,  16938,  16969,  16972,  17098,  17108,  17167
  17199,  17442,  17498,  17503,  17538,  17691,  17705,  18251,  18531,  18540,  18650,  18809,  19021,  19024,  19049,  19199
  19278,  19381,  19590,  19600,  19640,  19737,  19763,  19911,  20088,  20272,  20273,  20276,  20302,  20333,  20417,  20456
  20474,  20566,  20614,  20620,  20659,  20673,  20681,  20712,  20782,  20894,  20923,  21094,  21122,  21247,  21455,  21568
  21713,  21715,  21717,  21729,  21733,  21745,  21774,  21793,  21893,  21898,  21916,  21933,  22119,  22126,  22335,  22539
  22611,  22671,  22815,  22842,  22913,  22942,  23016,  23018,  23121,  23531,  23558,  23743,  24072,  24283,  24324,  24550
  24559,  24568,  24639,  24683,  24705,  24758,  24845,  24998,  25007,  25109,  25131,  25138,  25255,  25375,  25507,  25515
** ... 581 like lines cut
*Nset, nset=surface_2_All
     5,     6,   358,   359,   360,   361,   362,   363,   364,   365,   366,   367,   368,   369,   370,   371
   372,   373,   374,   375,   376,   377,   378,   379,   380,   381,   382,   383,   384,   385,   386,   387
   388,   389,   390,   391,   392,   393,   394,   395,   396,   397,   398,   399,   400,   401,   402,   403
   404,   405,   406,   407,   408,   409,   410,   411,   412,   413,   414,   415,   416,   417,   418,   419
   420,   421,   422,   423,   424,   425,   426,   427,   428,   429,   430,   431,   432,   433,   434,   435
   436,   437,   438,   439,   440,   441,   442,   443,   444,   445,   446,   447,   448,   449,   450,   451
   452,   453,   454,   455,   456,   457,   458,   459,   460,   461,   462,   463,   464,   465,   466,   467
   468,   469,   470,   471,   472,   473,   474,   475,   476,   477,   478,   479,   480,   481,   482,   483
   484,   485,   486,   487,   488,   489,   490,   491,   492,   493,   494, 12019, 12020, 12021, 12022, 12023
 12024, 12025, 12026, 12027, 12028, 12029, 12030, 12031, 12032, 12033, 12034, 12035, 12036, 12037, 12038, 12039
 12040, 12041, 12042, 12043, 12044, 12045, 12046, 12047, 12048, 12049, 12050, 12051, 12052, 12053, 12054, 12055
 12056, 12057, 12058, 12059, 12060, 12061, 12062, 12063, 12064, 12065, 12066, 12067, 12068, 12069, 12070, 12071
 12072, 12073, 12074, 12075, 12076, 12077, 12078, 12079, 12080, 12081, 12082, 12083, 12084, 12085, 12086, 12087
 12088, 12089, 12090, 12091, 12092, 12093, 12094, 12095, 12096, 12097, 12098, 12099, 12100, 12101, 12102, 12103
 12104, 12105, 12106, 12107, 12108, 12109, 12110, 12111, 12112, 12113, 12114, 12115, 12116, 12117, 12118, 12119
 12120, 12121, 12122, 12123, 12124, 12125, 12126, 12127, 12128, 12129, 12130, 12131, 12132, 12133, 12134, 12135
 12136, 12137, 12138, 12139, 12140, 12141, 12142, 12143, 12144, 12145, 12146, 12147, 12148, 12149, 12150, 12151
 12152, 12153, 12154, 12155, 12156, 12157, 12158, 12159, 12160, 12161, 12162, 12163, 12164, 12165, 12166, 12167
 12168, 12169, 12170, 12171, 12172, 12173, 12174, 12175, 12176, 12177, 12178, 12179, 12180, 12181, 12182, 12183
 12184, 12185, 12186, 12187, 12188, 12189, 12190, 12191, 12192, 12193, 12194, 12195, 12196, 12197, 12198, 12199
** ... 285 like lines cut
*Elset, elset=surface_2_All
     75,     95,    198,    469,    645,    860,    872,    877,   1059,   1350,   1484,   1861,   1870,   2418,   2500,   2668
   2898,   3757,   3958,   4118,   4386,   4428,   4749,   4987,   5634,   6423,   6701,   6877,   7820,   7869,   8028,   8165
   8364,   8475,   8506,   8646,   8725,   9247,   9463,   9474,   9491,   9502,   9585,   9869,  10307,  10516,  10684,  11149
  11162,  11591,  11657,  11698,  11717,  11878,  12014,  12094,  12252,  12365,  12492,  12493,  12504,  12750,  12821,  12835
  12869,  12896,  12946,  13024,  13074,  13076,  13079,  13119,  13144,  13162,  13167,  13179,  13263,  13345,  13376,  13399
  13411,  13433,  13446,  13460,  13471,  13474,  13496,  13521,  13543,  13612,  13658,  13705,  13723,  13745,  13819,  13820
  13851,  13938,  13986,  14202,  14255,  14284,  14289,  14328,  14342,  14343,  14344,  14514,  14613,  14670,  14699,  14722
  14734,  14736,  14759,  14843,  14861,  14864,  14956,  14970,  15000,  15002,  15004,  15024,  15026,  15034,  15042,  15099
  15103,  15124,  15125,  15128,  15138,  15150,  15231,  15275,  15288,  15305,  15326,  15349,  15354,  15397,  15398,  15402
  15429,  15430,  15458,  15466,  15485,  15504,  15524,  15540,  15544,  15545,  15547,  15551,  15561,  15576,  15577,  15593
  15610,  15616,  15627,  15628,  15630,  15634,  15659,  15663,  15702,  15721,  15730,  15736,  15743,  15744,  15750,  15752
  15765,  15772,  15782,  15793,  15810,  15811,  15821,  15849,  15856,  15874,  15875,  15900,  15906,  15922,  15932,  15943
  15950,  15966,  15967,  15971,  15978,  15988,  15990,  15991,  16008,  16013,  16014,  16018,  16027,  16054,  16058,  16060
  16075,  16084,  16089,  16104,  16107,  16108,  16109,  16115,  16168,  16205,  16238,  16258,  16261,  16271,  16276,  16295
  16308,  16315,  16340,  16360,  16361,  16401,  16429,  16447,  16459,  16464,  16474,  16483,  16569,  16624,  16633,  16642
  16681,  16771,  16818,  16955,  17010,  17133,  17233,  17309,  17365,  17396,  17398,  17454,  17821,  17829,  17851,  17910
  18039,  18044,  18094,  18173,  18189,  18266,  18343,  18789,  18910,  18914,  18995,  19112,  19128,  19293,  19294,  19306
  19359,  19393,  19449,  19463,  19487,  19628,  19629,  19649,  19751,  19814,  19826,  19847,  19902,  19974,  19983,  19993
  20101,  20126,  20140,  20189,  20194,  20220,  20222,  20224,  20315,  20328,  20340,  20395,  20399,  20422,  20464,  20525
  20532,  20718,  20739,  20816,  20869,  20917,  20942,  20947,  21014,  21051,  21053,  21119,  21126,  21174,  21417,  21435
** ... 588 like lines cut
*Nset, nset=surface_2_Head
     6,   470,   471,   472,   473,   474,   475,   476,   477,   478,   479,   480,   481,   482,   483,   484
   485,   486,   487,   488,   489,   490,   491,   492,   493,   494, 16696, 16697, 16698, 16699, 16700, 16701
 16702, 16703, 16704, 16705, 16706, 16707, 16708, 16709, 16710, 16711, 16712, 16713, 16714, 16715, 16716, 16717
 16718, 16719, 16720, 16721, 16722, 16723, 16724, 16725, 16726, 16727, 16728, 16729, 16730, 16731, 16732, 16733
 16734, 16735, 16736, 16737, 16738, 16739, 16740, 16741, 16742, 16743, 16744
*Elset, elset=surface_2_Head
  16115,  29826,  38730,  42002,  43019,  67706,  67911,  71112,  75213,  84326,  84512,  85236,  85419,  85957,  86159,  86398
  86575,  86627,  89686,  89690,  89710,  89755,  89766,  89772,  89911,  91299, 100192, 100609, 100845, 100857, 100864, 100891
 100907, 100910, 100911, 101343, 101351, 101353, 101372, 101384, 101397, 101442, 101528, 101557, 101670, 101681, 103637, 105329
 116021, 116277, 120870, 120874, 120879, 120882, 120895, 120897, 120911, 120913, 120923, 120933, 120934, 120938, 120939, 120945
 120948, 120951, 120952, 120954, 120968, 120975, 120979, 120981, 120982, 120985, 120986, 120993, 121007, 121012, 121017, 121020
 121021, 121036, 121039, 121044, 121045, 121048, 121056, 121057, 121064, 121079, 121080, 121081, 121103, 121121, 121125, 121126
 121127, 121131, 121140, 121143, 121145, 121146, 121154, 125167, 125922, 149352, 149489, 152657, 152830, 152837, 156343, 157672
 157675, 157676, 157983, 162136, 166939, 167208, 167822, 169263, 170022, 170063
*Nset, nset=surface_2_Bottom
     5,   358,   359,   360,   361,   362,   363,   364,   365,   366,   367,   368,   369,   370,   371,   372
   373,   374,   375,   376,   377,   378,   379,   380,   381, 12019, 12020, 12021, 12022, 12023, 12024, 12025
 12026, 12027, 12028, 12029, 12030, 12031, 12032, 12033, 12034, 12035, 12036, 12037, 12038, 12039, 12040, 12041
 12042, 12043, 12044, 12045, 12046, 12047, 12048, 12049, 12050, 12051, 12052, 12053, 12054, 12055, 12056, 12057
 12058, 12059, 12060, 12061, 12062, 12063, 12064, 12065, 12066
*Elset, elset=surface_2_Bottom
  12835,  15275,  16955,  18173,  18914,  19128,  19293,  19306,  19393,  19449,  19463,  19487,  19629,  19649,  19751,  19826
  19983,  20194,  20220,  20340,  20399,  21126,  23241,  23585,  23755,  23771,  23868,  23994,  24830,  25213,  27655,  35714
  35978,  53107,  57156,  57199,  57227,  57247,  57352,  57642,  57644,  58452,  58454,  80079,  86886,  89173,  89183,  89205
  89211,  89215,  89232,  89254,  89259,  89260,  89264,  89265,  89266,  89270,  89276,  89289,  89290,  89302,  89305,  89318
  89333,  89334,  89338,  89353,  89358,  89382,  89385,  89414,  89424,  89449,  89453,  89457,  89460,  89466,  89467,  89468
  89473,  89475,  89478,  89480,  89487,  89511,  89513,  89514,  89532,  89542,  89554,  89559,  89560,  89573,  89577,  89579
  89587,  89591,  89595,  89601,  89612,  89617,  95500,  97079,  97316, 107658, 138867, 142987, 148600, 151846, 151847, 151853
 151857, 152777, 153562, 153568, 156316, 159592, 169093
*Nset, nset=surface_2_Lateral
     5,     6,   358,   359,   360,   361,   362,   363,   364,   365,   366,   367,   368,   369,   370,   371
   372,   373,   374,   375,   376,   377,   378,   379,   380,   381,   382,   383,   384,   385,   386,   387
   388,   389,   390,   391,   392,   393,   394,   395,   396,   397,   398,   399,   400,   401,   402,   403
   404,   405,   406,   407,   408,   409,   410,   411,   412,   413,   414,   415,   416,   417,   418,   419
   420,   421,   422,   423,   424,   425,   426,   427,   428,   429,   430,   431,   432,   433,   434,   435
   436,   437,   438,   439,   440,   441,   442,   443,   444,   445,   446,   447,   448,   449,   450,   451
   452,   453,   454,   455,   456,   457,   458,   459,   460,   461,   462,   463,   464,   465,   466,   467
   468,   469,   470,   471,   472,   473,   474,   475,   476,   477,   478,   479,   480,   481,   482,   483
   484,   485,   486,   487,   488,   489,   490,   491,   492,   493,   494, 12067, 12068, 12069, 12070, 12071
 12072, 12073, 12074, 12075, 12076, 12077, 12078, 12079, 12080, 12081, 12082, 12083, 12084, 12085, 12086, 12087
 12088, 12089, 12090, 12091, 12092, 12093, 12094, 12095, 12096, 12097, 12098, 12099, 12100, 12101, 12102, 12103
 12104, 12105, 12106, 12107, 12108, 12109, 12110, 12111, 12112, 12113, 12114, 12115, 12116, 12117, 12118, 12119
 12120, 12121, 12122, 12123, 12124, 12125, 12126, 12127, 12128, 12129, 12130, 12131, 12132, 12133, 12134, 12135
 12136, 12137, 12138, 12139, 12140, 12141, 12142, 12143, 12144, 12145, 12146, 12147, 12148, 12149, 12150, 12151
 12152, 12153, 12154, 12155, 12156, 12157, 12158, 12159, 12160, 12161, 12162, 12163, 12164, 12165, 12166, 12167
 12168, 12169, 12170, 12171, 12172, 12173, 12174, 12175, 12176, 12177, 12178, 12179, 12180, 12181, 12182, 12183
 12184, 12185, 12186, 12187, 12188, 12189, 12190, 12191, 12192, 12193, 12194, 12195, 12196, 12197, 12198, 12199
 12200, 12201, 12202, 12203, 12204, 12205, 12206, 12207, 12208, 12209, 12210, 12211, 12212, 12213, 12214, 12215
 12216, 12217, 12218, 12219, 12220, 12221, 12222, 12223, 12224, 12225, 12226, 12227, 12228, 12229, 12230, 12231
 12232, 12233, 12234, 12235, 12236, 12237, 12238, 12239, 12240, 12241, 12242, 12243, 12244, 12245, 12246, 12247
** ... 278 like lines cut
*Elset, elset=surface_2_Lateral
     75,     95,    198,    469,    645,    860,    872,    877,   1059,   1350,   1484,   1861,   1870,   2418,   2500,   2668
   2898,   3757,   3958,   4118,   4386,   4428,   4749,   4987,   5634,   6423,   6701,   6877,   7820,   7869,   8028,   8165
   8364,   8475,   8506,   8646,   8725,   9247,   9463,   9474,   9491,   9502,   9585,   9869,  10307,  10516,  10684,  11149
  11162,  11591,  11657,  11698,  11717,  11878,  12014,  12094,  12252,  12365,  12492,  12493,  12504,  12750,  12821,  12869
  12896,  12946,  13024,  13074,  13076,  13079,  13119,  13144,  13162,  13167,  13179,  13263,  13345,  13376,  13399,  13411
  13433,  13446,  13460,  13471,  13474,  13496,  13521,  13543,  13612,  13658,  13705,  13723,  13745,  13819,  13820,  13851
  13938,  13986,  14202,  14255,  14284,  14289,  14328,  14342,  14343,  14344,  14514,  14613,  14670,  14699,  14722,  14734
  14736,  14759,  14843,  14861,  14864,  14956,  14970,  15000,  15002,  15004,  15024,  15026,  15034,  15042,  15099,  15103
  15124,  15125,  15128,  15138,  15150,  15231,  15288,  15305,  15326,  15349,  15354,  15397,  15398,  15402,  15429,  15430
  15458,  15466,  15485,  15504,  15524,  15540,  15544,  15545,  15547,  15551,  15561,  15576,  15577,  15593,  15610,  15616
  15627,  15628,  15630,  15634,  15659,  15663,  15702,  15721,  15730,  15736,  15743,  15744,  15750,  15752,  15765,  15772
  15782,  15793,  15810,  15811,  15821,  15849,  15856,  15874,  15875,  15900,  15906,  15922,  15932,  15943,  15950,  15966
  15967,  15971,  15978,  15988,  15990,  15991,  16008,  16013,  16014,  16018,  16027,  16054,  16058,  16060,  16075,  16084
  16089,  16104,  16107,  16108,  16109,  16168,  16205,  16238,  16258,  16261,  16271,  16276,  16295,  16308,  16315,  16340
  16360,  16361,  16401,  16429,  16447,  16459,  16464,  16474,  16483,  16569,  16624,  16633,  16642,  16681,  16771,  16818
  17010,  17133,  17233,  17309,  17365,  17396,  17398,  17454,  17821,  17829,  17851,  17910,  18039,  18044,  18094,  18189
  18266,  18343,  18789,  18910,  18995,  19112,  19294,  19359,  19628,  19814,  19847,  19902,  19974,  19993,  20101,  20126
  20140,  20189,  20222,  20224,  20315,  20328,  20395,  20422,  20464,  20525,  20532,  20718,  20739,  20816,  20869,  20917
  20942,  20947,  21014,  21051,  21053,  21119,  21174,  21417,  21435,  21437,  21463,  21487,  21498,  21521,  21530,  21660
  22054,  22289,  22676,  22947,  23051,  23178,  23184,  23185,  23320,  23694,  23952,  23999,  24005,  24035,  24039,  24052
** ... 573 like lines cut
*Nset, nset=surface_3_All
     3,     4,   302,   303,   304,   305,   306,   307,   308,   309,   310,   311,   312,   313,   314,   315
   316,   317,   318,   319,   320,   321,   322,   323,   324,   325,   326,   327,   328,   329,   330,   331
   332,   333,   334,   335,   336,   337,   338,   339,   340,   341,   342,   343,   344,   345,   346,   347
   348,   349,   350,   351,   352,   353,   354,   355,   356,   357, 11719, 11720, 11721, 11722, 11723, 11724
 11725, 11726, 11727, 11728, 11729, 11730, 11731, 11732, 11733, 11734, 11735, 11736, 11737, 11738, 11739, 11740
 11741, 11742, 11743, 11744, 11745, 11746, 11747, 11748, 11749, 11750, 11751, 11752, 11753, 11754, 11755, 11756
 11757, 11758, 11759, 11760, 11761, 11762, 11763, 11764, 11765, 11766, 11767, 11768, 11769, 11770, 11771, 11772
 11773, 11774, 11775, 11776, 11777, 11778, 11779, 11780, 11781, 11782, 11783, 11784, 11785, 11786, 11787, 11788
 11789, 11790, 11791, 11792, 11793, 11794, 11795, 11796, 11797, 11798, 11799, 11800, 11801, 11802, 11803, 11804
 11805, 11806, 11807, 11808, 11809, 11810, 11811, 11812, 11813, 11814, 11815, 11816, 11817, 11818, 11819, 11820
 11821, 11822, 11823, 11824, 11825, 11826, 11827, 11828, 11829, 11830, 11831, 11832, 11833, 11834, 11835, 11836
 11837, 11838, 11839, 11840, 11841, 11842, 11843, 11844, 11845, 11846, 11847, 11848, 11849, 11850, 11851, 11852
 11853, 11854, 11855, 11856, 11857, 11858, 11859, 11860, 11861, 11862, 11863, 11864, 11865, 11866, 11867, 11868
 11869, 11870, 11871, 11872, 11873, 11874, 11875, 11876, 11877, 11878, 11879, 11880, 11881, 11882, 11883, 11884
 11885, 11886, 11887, 11888, 11889, 11890, 11891, 11892, 11893, 11894, 11895, 11896, 11897, 11898, 11899, 11900
 11901, 11902, 11903, 11904, 11905, 11906, 11907, 11908, 11909, 11910, 11911, 11912, 11913, 11914, 11915, 11916
 11917, 11918, 11919, 11920, 11921, 11922, 11923, 11924, 11925, 11926, 11927, 11928, 11929, 11930, 11931, 11932
 11933, 11934, 11935, 11936, 11937, 11938, 11939, 11940, 11941, 11942, 11943, 11944, 11945, 11946, 11947, 11948
 11949, 11950, 11951, 11952, 11953, 11954, 11955, 11956, 11957, 11958, 11959, 11960, 11961, 11962, 11963, 11964
 11965, 11966, 11967, 11968, 11969, 11970, 11971, 11972, 11973, 11974, 11975, 11976, 11977, 11978, 11979, 11980
 11981, 11982, 11983, 11984, 11985, 11986, 11987, 11988, 11989, 11990, 11991, 11992, 11993, 11994, 11995, 11996
 11997, 11998, 11999, 12000, 12001, 12002, 12003, 12004, 12005, 12006, 12007, 12008, 12009, 12010, 12011, 12012
 12013, 12014, 12015, 12016, 12017, 12018
*Elset, elset=surface_3_All
    145,   7592,   8327,  12241,  12244,  12648,  12652,  13512,  14013,  14109,  14496,  14664,  14708,  14966,  14967,  15006
  15242,  15318,  15357,  15359,  15363,  15369,  15451,  15529,  15573,  15581,  15605,  15617,  15753,  16277,  16294,  16425
  16460,  16517,  18393,  20032,  20670,  20826,  20893,  24864,  24876,  25645,  25646,  25862,  27264,  31043,  34437,  34832
  35541,  36275,  36370,  36895,  37582,  38884,  41319,  42145,  43074,  43826,  47119,  47370,  47371,  48250,  49984,  50387
  52733,  53826,  53830,  53954,  54076,  54315,  54455,  54462,  55348,  56321,  57408,  57608,  60234,  60258,  62369,  64921
  66147,  66705,  67337,  67676,  68081,  68362,  69197,  74356,  74445,  74513,  75860,  77899,  81259,  81978,  85353,  85662
  85946,  86044,  86230,  86340,  86639,  86652,  86673,  86677,  86686,  86700,  86723,  86730,  86737,  86738,  86757,  86764
  86769,  86775,  86791,  86796,  86822,  86824,  86833,  86834,  86843,  86849,  86879,  86880,  86882,  86887,  86909,  86910
  86915,  86917,  86921,  86930,  86931,  86948,  86961,  86968,  86970,  86971,  86974,  86981,  86983,  86984,  86988,  86989
  87003,  87005,  87021,  87022,  87024,  87027,  87036,  87053,  87061,  87066,  87069,  87077,  87081,  87082,  87083,  87084
  87092,  87097,  87099,  87112,  87119,  87122,  87124,  87125,  87126,  87127,  87128,  87131,  87134,  87154,  87158,  87159
  87177,  87187,  87188,  87213,  87227,  87229,  87230,  87241,  87247,  87254,  87260,  87263,  87280,  87282,  87290,  87302
  87308,  87312,  87315,  87316,  87318,  87322,  87329,  87331,  87332,  87335,  87339,  87341,  87348,  87355,  87360,  87377
  87378,  87384,  87408,  87411,  87428,  87431,  87434,  87440,  87441,  87442,  87448,  87466,  87474,  87491,  87505,  87508
  87513,  87518,  87540,  87543,  87549,  87551,  87560,  87571,  87576,  87583,  87585,  87599,  87608,  87621,  87628,  87652
  87653,  87661,  87667,  87671,  87684,  87687,  87696,  87707,  87727,  87734,  87735,  87748,  87753,  87762,  87782,  87784
  87785,  87791,  87792,  87798,  87801,  87812,  87816,  87818,  87819,  87822,  87823,  87829,  87831,  87836,  87849,  87850
  87871,  87872,  87879,  87893,  87900,  87905,  87906,  87922,  87923,  87924,  87936,  87938,  87940,  87943,  87954,  87981
  87988,  88001,  88003,  88010,  88021,  88036,  88037,  88042,  88044,  88052,  88059,  88081,  88086,  88087,  88095,  88100
  88101,  88103,  88109,  88119,  88120,  88123,  88149,  88154,  88159,  88164,  88166,  88168,  88177,  88178,  88182,  88187
** ... 25 like lines cut
*Nset, nset=surface_3_Head
     3,   302,   303,   304,   305,   306,   307,   308, 11719, 11720, 11721
*Elset, elset=surface_3_Head
  85353,  85662,  86044,  86230,  86340,  86639,  86652,  86673,  86677,  86700, 100861, 108119
*Nset, nset=surface_3_Bottom
     4,   309,   310,   311,   312,   313,   314,   315, 11722, 11723, 11724
*Elset, elset=surface_3_Bottom
  20032,  20670,  20826,  86764,  86769,  86775,  86796,  99150,  99183, 155508, 158296, 161933
*Nset, nset=surface_3_Lateral
     3,     4,   302,   303,   304,   305,   306,   307,   308,   309,   310,   311,   312,   313,   314,   315
   316,   317,   318,   319,   320,   321,   322,   323,   324,   325,   326,   327,   328,   329,   330,   331
   332,   333,   334,   335,   336,   337,   338,   339,   340,   341,   342,   343,   344,   345,   346,   347
   348,   349,   350,   351,   352,   353,   354,   355,   356,   357, 11725, 11726, 11727, 11728, 11729, 11730
 11731, 11732, 11733, 11734, 11735, 11736, 11737, 11738, 11739, 11740, 11741, 11742, 11743, 11744, 11745, 11746
 11747, 11748, 11749, 11750, 11751, 11752, 11753, 11754, 11755, 11756, 11757, 11758, 11759, 11760, 11761, 11762
 11763, 11764, 11765, 11766, 11767, 11768, 11769, 11770, 11771, 11772, 11773, 11774, 11775, 11776, 11777, 11778
 11779, 11780, 11781, 11782, 11783, 11784, 11785, 11786, 11787, 11788, 11789, 11790, 11791, 11792, 11793, 11794
 11795, 11796, 11797, 11798, 11799, 11800, 11801, 11802, 11803, 11804, 11805, 11806, 11807, 11808, 11809, 11810
 11811, 11812, 11813, 11814, 11815, 11816, 11817, 11818, 11819, 11820, 11821, 11822, 11823, 11824, 11825, 11826
 11827, 11828, 11829, 11830, 11831, 11832, 11833, 11834, 11835, 11836, 11837, 11838, 11839, 11840, 11841, 11842
 11843, 11844, 11845, 11846, 11847, 11848, 11849, 11850, 11851, 11852, 11853, 11854, 11855, 11856, 11857, 11858
 11859, 11860, 11861, 11862, 11863, 11864, 11865, 11866, 11867, 11868, 11869, 11870, 11871, 11872, 11873, 11874
 11875, 11876, 11877, 11878, 11879, 11880, 11881, 11882, 11883, 11884, 11885, 11886, 11887, 11888, 11889, 11890
 11891, 11892, 11893, 11894, 11895, 11896, 11897, 11898, 11899, 11900, 11901, 11902, 11903, 11904, 11905, 11906
 11907, 11908, 11909, 11910, 11911, 11912, 11913, 11914, 11915, 11916, 11917, 11918, 11919, 11920, 11921, 11922
 11923, 11924, 11925, 11926, 11927, 11928, 11929, 11930, 11931, 11932, 11933, 11934, 11935, 11936, 11937, 11938
 11939, 11940, 11941, 11942, 11943, 11944, 11945, 11946, 11947, 11948, 11949, 11950, 11951, 11952, 11953, 11954
 11955, 11956, 11957, 11958, 11959, 11960, 11961, 11962, 11963, 11964, 11965, 11966, 11967, 11968, 11969, 11970
 11971, 11972, 11973, 11974, 11975, 11976, 11977, 11978, 11979, 11980, 11981, 11982, 11983, 11984, 11985, 11986
 11987, 11988, 11989, 11990, 11991, 11992, 11993, 11994, 11995, 11996, 11997, 11998, 11999, 12000, 12001, 12002
 12003, 12004, 12005, 12006, 12007, 12008, 12009, 12010, 12011, 12012, 12013, 12014, 12015, 12016, 12017, 12018
*Elset, elset=surface_3_Lateral
    145,   7592,   8327,  12241,  12244,  12648,  12652,  13512,  14013,  14109,  14496,  14664,  14708,  14966,  14967,  15006
  15242,  15318,  15357,  15359,  15363,  15369,  15451,  15529,  15573,  15581,  15605,  15617,  15753,  16277,  16294,  16425
  16460,  16517,  18393,  20893,  24864,  24876,  25645,  25646,  25862,  27264,  31043,  34437,  34832,  35541,  36275,  36370
  36895,  37582,  38884,  41319,  42145,  43074,  43826,  47119,  47370,  47371,  48250,  49984,  50387,  52733,  53826,  53830
  53954,  54076,  54315,  54455,  54462,  55348,  56321,  57408,  57608,  60234,  60258,  62369,  64921,  66147,  66705,  67337
  67676,  68081,  68362,  69197,  74356,  74445,  74513,  75860,  77899,  81259,  81978,  85946,  86686,  86723,  86730,  86737
  86738,  86757,  86791,  86822,  86824,  86833,  86834,  86843,  86849,  86879,  86880,  86882,  86887,  86909,  86910,  86915
  86917,  86921,  86930,  86931,  86948,  86961,  86968,  86970,  86971,  86974,  86981,  86983,  86984,  86988,  86989,  87003
  87005,  87021,  87022,  87024,  87027,  87036,  87053,  87061,  87066,  87069,  87077,  87081,  87082,  87083,  87084,  87092
  87097,  87099,  87112,  87119,  87122,  87124,  87125,  87126,  87127,  87128,  87131,  87134,  87154,  87158,  87159,  87177
  87187,  87188,  87213,  87227,  87229,  87230,  87241,  87247,  87254,  87260,  87263,  87280,  87282,  87290,  87302,  87308
  87312,  87315,  87316,  87318,  87322,  87329,  87331,  87332,  87335,  87339,  87341,  87348,  87355,  87360,  87377,  87378
  87384,  87408,  87411,  87428,  87431,  87434,  87440,  87441,  87442,  87448,  87466,  87474,  87491,  87505,  87508,  87513
  87518,  87540,  87543,  87549,  87551,  87560,  87571,  87576,  87583,  87585,  87599,  87608,  87621,  87628,  87652,  87653
  87661,  87667,  87671,  87684,  87687,  87696,  87707,  87727,  87734,  87735,  87748,  87753,  87762,  87782,  87784,  87785
  87791,  87792,  87798,  87801,  87812,  87816,  87818,  87819,  87822,  87823,  87829,  87831,  87836,  87849,  87850,  87871
  87872,  87879,  87893,  87900,  87905,  87906,  87922,  87923,  87924,  87936,  87938,  87940,  87943,  87954,  87981,  87988
  88001,  88003,  88010,  88021,  88036,  88037,  88042,  88044,  88052,  88059,  88081,  88086,  88087,  88095,  88100,  88101
  88103,  88109,  88119,  88120,  88123,  88149,  88154,  88159,  88164,  88166,  88168,  88177,  88178,  88182,  88187,  88192
  88211,  88215,  88216,  88219,  88227,  88228,  88232,  88260,  88263,  88266,  88278,  88281,  88285,  88292,  88295,  88298
** ... 23 like lines cut
*Nset, nset=RubberSet, generate
     1,  39384,      1
*Elset, elset=RubberSet, generate
      1,  172337,       1
*Elset, elset=_surface_0_All_S2, internal
      9,     11,    497,    562,    776,   1030,   1058,   1097,   1310,   1429,   1464,   2014,   2398,   3202,   4440,   5722
   7936,   8414,   8815,  11065,  12904,  13143,  13178,  13363,  13535,  13768,  13906,  13931,  14296,  14329,  14331,  14450
  14524,  14532,  14552,  14602,  14622,  14731,  14746,  14772,  14873,  14961,  15087,  15211,  15237,  15280,  15424,  15558
  15598,  15763,  15868,  15888,  15935,  15948,  16304,  16359,  16629,  16675,  16734,  16754,  16844,  16893,  16914,  16997
  17439,  17488,  17520,  17763,  18072,  18096,  18097,  18154,  18362,  18499,  18883,  19152,  19521,  19575,  19579,  19750
  19962,  20144,  20193,  20203,  20401,  20498,  20731,  20743,  20995,  20996,  21024,  21104,  21190,  21218,  21282,  21288
  21347,  21354,  21383,  21407,  21602,  21646,  21658,  21689,  21834,  22037,  22333,  22368,  22371,  22614,  22650,  22717
  22807,  22872,  22914,  23087,  23135,  23207,  23217,  23227,  23275,  23361,  23493,  23582,  23611,  23624,  23787,  24167
  24188,  24492,  24658,  24759,  24797,  25050,  25237,  25342,  25467,  25511,  25605,  25607,  25668,  25909,  26001,  26011
  26057,  26111,  26128,  26179,  26218,  26365,  26617,  26764,  26816,  26885,  26961,  27127,  27361,  27366,  27388,  27390
  27391,  27405,  27577,  27601,  27636,  27638,  27684,  27702,  27777,  27823,  27961,  28167,  28197,  28227,  28430,  28433
  28435,  28441,  28654,  28821,  28828,  29042,  29054,  29065,  29070,  29172,  29205,  29650,  29710,  29716,  29965,  29982
  30104,  30197,  30221,  30266,  30366,  30442,  30473,  30670,  30790,  30853,  30889,  31089,  31123,  31164,  31193,  31234
  31336,  31437,  31446,  31447,  31907,  32156,  32301,  32375,  32392,  32425,  32631,  32635,  32652,  32822,  32884,  32899
  32962,  33028,  33138,  33230,  33288,  33449,  33488,  33491,  33593,  33637,  33815,  33942,  34308,  34845,  35236,  35388
  35593,  35644,  35674,  35677,  35959,  36079,  36161,  36335,  36448,  36491,  36492,  36532,  36539,  36693,  36699,  36744
  36751,  36808,  36857,  36881,  36953,  37073,  37155,  37334,  37340,  37350,  37510,  37522,  37524,  37698,  37845,  37884
  37898,  37929,  38044,  38115,  38157,  38160,  38278,  38535,  38598,  38619,  38637,  38726,  38748,  38768,  38782,  38812
  39412,  39461,  39669,  39811,  39834,  39892,  39908,  39943,  39973,  39986,  40085,  40104,  40172,  40181,  40234,  40313
  40358,  40417,  40503,  40559,  40594,  40636,  40831,  41170,  41324,  41359,  41515,  41633,  41730,  41784,  42007,  42164
** ... 40 like lines cut
*Elset, elset=_surface_0_All_S3, internal
    144,    319,    374,    565,    606,    795,    969,   1016,   1085,   1108,   1156,   1192,   1460,   1739,   1843,   1858
   1871,   1882,   1922,   2092,   2167,   2317,   2396,   2626,   2841,   2846,   3083,   3156,   3254,   3287,   3533,   3758
   3909,   3927,   4013,   4092,   4165,   4188,   4379,   4451,   4552,   4674,   4742,   4769,   5276,   5294,   5337,   5399
   5407,   5541,   5774,   5791,   5792,   5821,   5885,   6043,   6058,   6236,   6409,   6426,   6430,   6476,   6591,   6607
   6882,   7037,   7218,   7223,   7259,   7297,   7379,   7382,   7600,   7743,   7818,   7987,   7992,   8012,   8350,   8385
   8416,   8508,   8542,   8706,   8742,   8744,   8811,   9097,   9119,   9280,   9306,   9343,   9344,   9659,   9661,   9666
   9852,   9918,   9966,  10013,  10029,  10042,  10062,  10065,  10273,  10422,  10631,  10638,  10739,  10744,  10783,  10939
  11076,  11234,  11257,  11289,  11452,  11467,  11611,  11628,  11729,  11946,  12102,  12108,  12114,  12117,  12140,  12216
  12400,  12614,  12696,  12706,  12730,  12743,  12749,  12763,  12767,  12791,  12799,  12811,  12818,  12822,  12823,  12825
  12826,  12831,  12841,  12844,  12845,  12859,  12862,  12864,  12868,  12877,  12882,  12883,  12884,  12891,  12892,  12900
  12910,  12913,  12916,  12917,  12927,  12930,  12934,  12935,  12937,  12947,  12948,  12949,  12950,  12954,  12957,  12961
  12975,  12988,  12993,  13003,  13011,  13014,  13020,  13021,  13022,  13025,  13028,  13034,  13043,  13046,  13048,  13054
  13062,  13070,  13082,  13087,  13101,  13103,  13107,  13115,  13129,  13133,  13138,  13141,  13145,  13146,  13148,  13155
  13161,  13170,  13171,  13180,  13182,  13186,  13193,  13205,  13206,  13224,  13241,  13246,  13247,  13251,  13252,  13257
  13262,  13284,  13285,  13292,  13295,  13300,  13310,  13316,  13326,  13337,  13344,  13346,  13352,  13356,  13357,  13360
  13362,  13366,  13367,  13368,  13379,  13380,  13385,  13406,  13415,  13416,  13417,  13423,  13424,  13427,  13431,  13441
  13447,  13452,  13458,  13463,  13469,  13470,  13481,  13497,  13508,  13514,  13517,  13518,  13519,  13520,  13531,  13534
  13555,  13561,  13563,  13564,  13577,  13582,  13594,  13596,  13599,  13602,  13603,  13607,  13613,  13616,  13617,  13625
  13628,  13634,  13637,  13646,  13648,  13649,  13651,  13656,  13661,  13664,  13672,  13676,  13679,  13681,  13683,  13692
  13699,  13702,  13703,  13704,  13706,  13708,  13710,  13713,  13717,  13720,  13727,  13738,  13743,  13750,  13765,  13775
** ... 1233 like lines cut
*Elset, elset=_surface_0_All_S4, internal
    608,    694,    697,    704,    804,    844,    939,   1281,   1376,   1499,   1541,   1606,   1629,   1849,   1874,   1928
   1967,   2181,   2186,   2200,   2560,   2701,   3129,   3200,   3284,   3302,   3408,   3985,   4496,   4613,   4659,   4959
   5005,   5152,   5446,   5706,   5744,   5794,   6230,   6474,   6823,   6976,   6978,   7215,   7220,   8296,   8850,   8853
   8867,   9024,   9726,  10152,  10400,  10742,  10757,  10924,  11500,  11817,  12070,  12114,  12196,  12355,  12751,  12967
  13102,  13647,  13813,  13838,  13864,  13929,  14238,  14458,  14700,  14882,  14885,  15080,  15241,  15408,  15452,  15476
  15646,  15777,  15805,  16130,  16169,  16313,  16683,  16706,  16867,  17039,  17157,  17226,  17299,  17361,  17395,  17493
  17819,  17923,  18360,  18380,  18442,  18471,  18615,  18811,  18908,  19097,  19186,  19827,  19839,  20113,  20290,  20325
  20370,  20539,  20543,  20748,  21069,  21071,  21154,  21175,  21237,  21319,  21325,  21362,  21373,  21458,  21464,  21658
  21670,  21840,  21846,  21853,  21883,  21966,  22076,  22127,  22249,  22617,  22760,  22937,  23002,  23027,  23086,  23597
  23712,  23770,  23814,  23835,  23842,  23862,  23928,  24082,  24542,  24937,  25174,  25325,  25627,  25628,  25671,  25695
  25790,  25822,  26071,  26075,  26133,  26181,  26466,  26597,  26661,  26695,  27181,  27271,  27373,  27419,  27521,  27570
  27576,  27709,  27761,  27896,  28045,  28047,  28123,  28164,  28331,  28825,  29029,  29278,  29300,  29326,  29337,  29502
  29585,  29613,  29670,  29699,  29710,  29813,  29816,  29854,  30018,  30213,  30221,  30444,  30532,  30574,  30612,  30650
  30674,  30740,  30878,  30944,  30983,  31016,  31076,  31106,  31160,  31202,  31305,  31329,  31343,  31373,  31475,  31509
  31510,  31755,  31800,  31852,  31949,  31963,  32092,  32094,  32128,  32284,  32348,  32351,  32607,  32624,  32695,  32809
  32859,  32942,  32950,  33265,  33398,  33549,  33725,  33780,  33792,  33915,  33924,  33966,  34092,  34230,  34299,  34585
  34854,  34941,  35011,  35107,  35145,  35246,  35268,  35303,  35398,  35504,  35543,  35658,  35748,  35942,  35980,  35983
  36085,  36138,  36181,  36200,  36203,  36224,  36506,  36523,  36531,  36594,  36597,  36896,  37062,  37166,  37242,  37280
  37392,  37452,  37602,  37603,  37735,  37760,  37815,  37878,  37973,  38116,  38149,  38335,  38476,  38681,  38860,  38913
  38988,  39056,  39058,  39218,  39808,  39828,  39978,  40016,  40017,  40024,  40110,  40133,  40474,  40527,  40807,  40889
** ... 51 like lines cut
*Elset, elset=_surface_0_All_S1, internal
    695,    899,   1433,   1509,   2123,   2447,   2561,   2692,   3256,   3310,   3321,   3410,   4389,   4708,   5260,   5824
   6317,   6767,   6802,   6932,   7107,   7224,   7728,   8229,   8434,   8485,   8865,   9097,   9454,   9459,   9475,  10709
  10716,  10787,  10975,  10991,  11145,  11604,  11608,  11775,  12276,  12919,  13239,  13318,  13430,  13839,  14559,  14769
  14909,  15072,  15146,  15158,  15196,  15562,  15621,  15951,  16061,  16513,  16879,  17430,  17490,  17608,  17628,  17635
  17866,  18182,  18928,  19083,  19276,  19612,  20489,  21144,  21347,  21388,  21543,  21639,  21647,  21781,  22617,  22625
  23302,  23458,  23626,  23687,  24000,  24375,  24500,  24647,  24933,  25039,  25209,  25505,  25535,  25721,  26362,  26475
  26644,  26658,  26663,  26751,  26889,  27353,  27637,  27658,  27768,  27978,  28152,  28165,  28251,  28280,  28414,  28480
  28701,  28999,  29415,  29514,  29583,  29672,  29807,  29883,  29950,  30185,  30282,  30339,  30504,  30748,  30793,  31205
  31323,  31717,  32021,  32306,  32494,  32720,  32809,  32930,  33003,  33295,  33303,  33326,  33330,  33647,  34038,  34128
  34163,  34187,  34712,  35726,  35742,  36168,  36288,  37056,  37305,  37659,  37831,  38026,  38163,  38194,  38348,  38481
  38943,  38990,  39089,  39105,  39587,  40874,  41440,  41649,  41675,  41678,  41770,  42013,  42070,  42262,  42312,  42572
  42651,  42784,  42858,  42889,  42899,  43077,  43403,  43639,  43705,  43823,  44003,  44038,  44320,  44594,  44813,  45348
  45746,  45764,  45769,  45774,  45844,  46056,  47133,  47138,  47786,  47970,  48199,  48299,  48431,  48910,  49772,  50495
  51083,  51552,  51744,  51890,  52203,  52546,  52596,  52611,  52612,  52672,  52769,  52932,  53095,  53353,  53592,  53697
  53744,  53763,  53792,  54535,  55365,  55706,  55976,  55977,  56325,  56361,  56368,  56586,  57165,  57281,  57437,  57778
  57808,  57977,  58137,  58487,  58989,  59531,  59540,  59831,  60026,  60036,  60143,  60152,  60982,  62069,  62254,  63044
  63202,  63203,  63254,  63329,  64245,  64481,  64743,  64830,  64902,  65155,  65388,  65541,  65975,  66099,  66127,  66217
  66404,  66513,  66746,  66776,  67472,  67684,  67835,  67992,  68177,  68185,  68424,  68434,  68702,  68898,  69218,  69353
  69461,  69606,  69609,  69627,  69637,  69889,  69894,  69916,  69991,  70097,  70276,  70491,  70506,  70858,  71195,  71231
  71347,  71446,  71462,  71632,  71730,  72064,  72114,  72127,  72137,  72150,  72311,  72459,  72495,  72508,  72640,  72944
** ... 20 like lines cut
*Surface, type=ELEMENT, name=surface_0_All
_surface_0_All_S2, S2
_surface_0_All_S3, S3
_surface_0_All_S4, S4
_surface_0_All_S1, S1
*Elset, elset=_surface_1_All_S2, internal
    131,    738,   1341,   1483,   2607,   8985,   9546,  10159,  10673,  14452,  14536,  14561,  15333,  16938,  17538,  20620
  21122,  21893,  23016,  24072,  25375,  25867,  26579,  28549,  29675,  30462,  30870,  37625,  38412,  43171,  43859,  44261
  44441,  44738,  46088,  46881,  47708,  51632,  51633,  52397,  52479,  56372,  59485,  59871,  60222,  60231,  60308,  62973
  63051,  64067,  64241,  64913,  65921,  66471,  67423,  68120,  69064,  69630,  70855,  72017,  73313,  75636,  76043,  76471
  76568,  77700,  78218,  80014,  80711,  84245,  84490,  86447,  86736,  87722,  87961,  88483,  88835,  88971,  90802,  90978
  94943,  98296,  99004, 100709, 106891, 106954, 107475, 111369, 113577, 117946, 120980, 120997, 121178, 121196, 121415, 121454
 121907, 121989, 122099, 122104, 122156, 122217, 122285, 122724, 122739, 122742, 122919, 123045, 123052, 123171, 123340, 123375
 123394, 123470, 123588, 124115, 124599, 124639, 125122, 125145, 125289, 125327, 125556, 125812, 125857, 125901, 125963, 126047
 126064, 126193, 126200, 126944, 126968, 126983, 127032, 127211, 127336, 127450, 127633, 127845, 127914, 128396, 128771, 128897
 128958, 129190, 129211, 129326, 129398, 129418, 129491, 129783, 129928, 130020, 130065, 130163, 130232, 130908, 131016, 131068
 131164, 131509, 131751, 131793, 131885, 132137, 132222, 132250, 132459, 132588, 132742, 132909, 133354, 133537, 133730, 133892
 133968, 134050, 134130, 134211, 134451, 134595, 134733, 134962, 134973, 134981, 135156, 135254, 135332, 135580, 135647, 135705
 136065, 136078, 136233, 136250, 136455, 137170, 137217, 137275, 137399, 137463, 137484, 137584, 137602, 137965, 138044, 138060
 138383, 138486, 138625, 138657, 138704, 138924, 138929, 138953, 139062, 139282, 139386, 139479, 139682, 139717, 139777, 139808
 140071, 140075, 140082, 140085, 140094, 140367, 140407, 140413, 140568, 140691, 140745, 140862, 140873, 141114, 141132, 141489
 141526, 141867, 141996, 142257, 142316, 142403, 142938, 143049, 143378, 143384, 143458, 143518, 143976, 144148, 144155, 144164
 144269, 144701, 144737, 144769, 145008, 145038, 145070, 145411, 145653, 145959, 146012, 146136, 146147, 146543, 146785, 146800
 147085, 147327, 147701, 148022, 148085, 148138, 148168, 148198, 148234, 148371, 148454, 148466, 148735, 148813, 148840, 148842
 149263, 149369, 149448, 149492, 149592, 149670, 149903, 150007, 150009, 150180, 150200, 150214, 150356, 150381, 150483, 150497
 150553, 150590, 150668, 150759, 150776, 150855, 151027, 151314, 151708, 151727, 151796, 151995, 152382, 153274, 153510, 154785
 154997, 155473, 155935, 156950, 157143, 157266, 157709, 158358, 158381, 158571, 160071, 160256, 161409, 161867, 162676, 163401
 163501, 163773, 165801, 166173, 166730, 167759, 170082, 170904, 170989, 171562, 171584
*Elset, elset=_surface_1_All_S4, internal
    276,    551,   1502,   2192,   2330,   2350,   2894,   3015,   3049,   4143,   4225,   4392,   6099,   7400,   8590,   9239
   9398,   9796,   9805,  11995,  12189,  12384,  12445,  12991,  12994,  13032,  13468,  13774,  14186,  14788,  14875,  15345
  16150,  16595,  17705,  18809,  19969,  20474,  21729,  23018,  23558,  24559,  24998,  25109,  25131,  25515,  25622,  26514
  30655,  31648,  32282,  33339,  33771,  35811,  35889,  37478,  37752,  38256,  38534,  38661,  40102,  40820,  41228,  41737
  42536,  42720,  43548,  44337,  46150,  46589,  47301,  47387,  47534,  47744,  47868,  47962,  48580,  48753,  48834,  49170
  49318,  49404,  50260,  50659,  50851,  50887,  51570,  52162,  52765,  52809,  54204,  54891,  55690,  56115,  56201,  56666
  57560,  58142,  58765,  59242,  60120,  60131,  60342,  60877,  61024,  61454,  61479,  61560,  61983,  62539,  62913,  63230
  63624,  63693,  63868,  64161,  64927,  65030,  65336,  65671,  66319,  66732,  66880,  67157,  67687,  68650,  69215,  69448
  69773,  71374,  73236,  74042,  74423,  74878,  75459,  75934,  76094,  76529,  76650,  77702,  77889,  78113,  78246,  78444
  79122,  80505,  81086,  81365,  82146,  84041,  84171,  84753,  85113,  85540,  86118,  87039,  87368,  87713,  87867,  88461
  89436,  90075,  90512,  90746,  91545,  92092,  92127,  93301,  93577,  94085,  95367,  95869,  97489,  97739,  98541,  99077
  99758, 102068, 102129, 102211, 103351, 103523, 104949, 105241, 105248, 105416, 105891, 106797, 107113, 107497, 107545, 109918
 110752, 111845, 112355, 112536, 113907, 114070, 114173, 115495, 115583, 116151, 116739, 117350, 118203, 119690, 121166, 121234
 121281, 121324, 121403, 121681, 122152, 122236, 122237, 122627, 122692, 122801, 123047, 123058, 123066, 123292, 123627, 123703
 123774, 124230, 124376, 124487, 124659, 125189, 125356, 125451, 126085, 126185, 126317, 126366, 126827, 127058, 127084, 127091
 127218, 127453, 127532, 127707, 127863, 128110, 128369, 128803, 128914, 129617, 129863, 130042, 130245, 130325, 130660, 130701
 130766, 131040, 131120, 131564, 131821, 131914, 132081, 132153, 132189, 132219, 132231, 132411, 132450, 132547, 132658, 132747
 132750, 132830, 132896, 133161, 133165, 133329, 133353, 133592, 133950, 134025, 134033, 134044, 134056, 134142, 134267, 134433
 134446, 134472, 134474, 134771, 134873, 135025, 135089, 135240, 135448, 135591, 135649, 135675, 135779, 135799, 135837, 135903
 135926, 136094, 136106, 136178, 136424, 136628, 136761, 136765, 136984, 137055, 137517, 137880, 138142, 138230, 138349, 138457
** ... 10 like lines cut
*Elset, elset=_surface_1_All_S1, internal
   1160,   1444,   3043,   4212,   6773,   7839,  11254,  11743,  12584,  12843,  13311,  16062,  16166,  16242,  16969,  18531
  19381,  20276,  20673,  21094,  21774,  22815,  26565,  27422,  28598,  30905,  30943,  31382,  31395,  31743,  32469,  32476
  33671,  34657,  35408,  35515,  35579,  35681,  36455,  37331,  37438,  37812,  38337,  38621,  39431,  40043,  40091,  40525
  41008,  41027,  41260,  41300,  43376,  43856,  43906,  44315,  44401,  44710,  45597,  46367,  46468,  46633,  46863,  48427
  48699,  48981,  51096,  52326,  52474,  53154,  53357,  54182,  54221,  54526,  56594,  58009,  59359,  60122,  61096,  61257
  61358,  61463,  62489,  63627,  64529,  64899,  65163,  65208,  65408,  66358,  66778,  66867,  67106,  67426,  69222,  69363
  69486,  70329,  70457,  70951,  73452,  74968,  76479,  77355,  77645,  77734,  79306,  79940,  82816,  82938,  84193,  84763
  85601,  86548,  88062,  88415,  88692,  89519,  91624,  91973,  91992,  92080,  92231,  92777,  93018,  94538,  94561,  95333
  95803,  96015,  96461,  96779,  97120,  97629,  97632,  98924, 100724, 101665, 102069, 102079, 102662, 102865, 105951, 106087
 106187, 106819, 108206, 113143, 113826, 113924, 114628, 114975, 115997, 116101, 118867, 119222, 120525, 121378, 122599, 123117
 123185, 123920, 125279, 125323, 125476, 125543, 125569, 125638, 125932, 126018, 126539, 126721, 127203, 127532, 128422, 128828
 130595, 131775, 134082, 134185, 134649, 134655, 134912, 134955, 135390, 135392, 135704, 135843, 136952, 137176, 138243, 139060
 139599, 139925, 140218, 140286, 140333, 141397, 141627, 143306, 144405, 145080, 146242, 146408, 146954, 147719, 148020, 148289
 148420, 148732, 149149, 150554, 152398, 153836, 154042, 155688, 155794, 156532, 156984, 157075, 158122, 158357, 158387, 160920
 161700, 162587, 163472, 163642, 165494, 165580, 166863, 167085, 168129, 168364, 169987, 170111, 171191, 171694, 171826, 172057
*Elset, elset=_surface_1_All_S3, internal
    223,    239,    764,    797,    809,   1078,   1230,   1437,   1676,   1832,   1901,   1920,   1982,   1983,   2327,   2535
   2682,   2840,   2889,   3138,   3319,   3482,   3685,   3845,   3977,   4170,   4222,   4317,   5503,   5849,   6232,   6842
   6865,   6929,   7051,   7348,   7465,   7655,   7893,   7940,   8310,   8320,   8606,   8951,   9253,   9267,   9461,   9518
   9540,   9555,   9802,   9860,   9890,   9936,  10024,  10141,  10343,  10349,  10502,  10505,  10586,  10821,  11077,  11078
  11448,  11690,  11724,  11901,  11930,  11993,  12029,  12080,  12673,  12744,  12787,  12816,  12876,  12936,  12958,  13190
  13325,  13329,  13373,  13421,  13432,  13554,  13565,  13598,  13694,  13795,  13810,  13811,  13883,  13893,  13894,  13899
  13939,  13977,  13993,  14133,  14134,  14179,  14253,  14311,  14412,  14415,  14418,  14424,  14441,  14513,  14535,  14605
  14640,  14787,  14813,  14870,  14936,  14998,  15085,  15142,  15165,  15230,  15253,  15271,  15309,  15328,  15341,  15432
  15487,  15501,  15574,  15595,  15658,  15669,  15839,  15854,  15958,  15973,  16012,  16086,  16171,  16175,  16196,  16203
  16214,  16216,  16223,  16236,  16247,  16259,  16260,  16285,  16298,  16306,  16319,  16325,  16326,  16332,  16334,  16351
  16353,  16366,  16377,  16387,  16388,  16402,  16416,  16420,  16444,  16466,  16476,  16484,  16496,  16523,  16527,  16543
  16556,  16563,  16568,  16578,  16591,  16618,  16649,  16664,  16670,  16684,  16688,  16690,  16695,  16704,  16705,  16714
  16716,  16718,  16733,  16764,  16765,  16768,  16781,  16795,  16821,  16829,  16832,  16835,  16854,  16864,  16901,  16902
  16921,  16972,  17098,  17108,  17167,  17199,  17297,  17442,  17498,  17503,  17691,  18251,  18540,  18650,  18965,  18975
  19021,  19024,  19049,  19199,  19200,  19257,  19278,  19397,  19402,  19590,  19600,  19640,  19737,  19763,  19860,  19911
  20088,  20272,  20273,  20302,  20333,  20417,  20448,  20456,  20566,  20614,  20659,  20681,  20712,  20782,  20894,  20923
  21247,  21455,  21568,  21708,  21713,  21715,  21717,  21733,  21735,  21745,  21793,  21829,  21898,  21916,  21933,  21971
  22119,  22126,  22155,  22240,  22335,  22539,  22611,  22671,  22842,  22913,  22942,  23121,  23531,  23743,  24283,  24324
  24550,  24568,  24639,  24683,  24705,  24758,  24845,  25007,  25138,  25255,  25507,  25523,  25666,  25994,  26097,  26205
  26390,  26532,  26540,  26556,  26605,  26609,  26632,  26638,  26643,  26653,  26682,  26691,  26698,  26732,  26735,  26774
** ... 529 like lines cut
*Surface, type=ELEMENT, name=surface_1_All
_surface_1_All_S2, S2
_surface_1_All_S4, S4
_surface_1_All_S1, S1
_surface_1_All_S3, S3
*Elset, elset=_surface_2_All_S4, internal
     75,    469,    860,    872,   1484,   1861,   2668,   3757,   4118,   4428,   6423,   8028,   8475,   8506,   8725,  11698
  11717,  11878,  12252,  12504,  13411,  13986,  15026,  15125,  15990,  16205,  16447,  17233,  17910,  18094,  19112,  19293
  19826,  19847,  20140,  20222,  20328,  20942,  21051,  21417,  23999,  24292,  24883,  25028,  25424,  26173,  26253,  26321
  26413,  26759,  27478,  27839,  27883,  28064,  28091,  28785,  29791,  31672,  31675,  31718,  31750,  31891,  32416,  32470
  32636,  33945,  34035,  34159,  34285,  34675,  35312,  35862,  36710,  37094,  37326,  37578,  37647,  38906,  38997,  39376
  39383,  39386,  39473,  39776,  40082,  40696,  40836,  40842,  41236,  41537,  41793,  42002,  42657,  42979,  43019,  43039
  43396,  43625,  45453,  45655,  45662,  48893,  49763,  50747,  50822,  51370,  51421,  52566,  52676,  52899,  53289,  53597
  53883,  54135,  54444,  54919,  55520,  56355,  56589,  56891,  57329,  57470,  58248,  58803,  59147,  59624,  59827,  62512
  62811,  63168,  63856,  63990,  64199,  64943,  65081,  65792,  66890,  67383,  68051,  68958,  69822,  71646,  72153,  72604
  72839,  74192,  74732,  75244,  75347,  75590,  76537,  76773,  77038,  77430,  77528,  77655,  78119,  78897,  79437,  79554
  79656,  81381,  82509,  82575,  83516,  85213,  85337,  85372,  85630,  86331,  86422,  87045,  87104,  87146,  87190,  87212
  87383,  87888,  87903,  88214,  88630,  88961,  89290,  89414,  89707,  89766,  90288,  90302,  90444,  90525,  90646,  90838
  90884,  91022,  91031,  91183,  91423,  91590,  91772,  92399,  92402,  92705,  92715,  92723,  92791,  92963,  93108,  93476
  93560,  93565,  93754,  93824,  94003,  94039,  94279,  94309,  94477,  94605,  94658,  95194,  95354,  95764,  95951,  96238
  96347,  96354,  96400,  96557,  96609,  96788,  97079,  97087,  97089,  97224,  97256,  97366,  97377,  97514,  97683,  97747
  97770,  97891,  98097,  98254,  98380,  98481,  98566,  98813,  98841,  98956,  99228,  99234,  99377,  99429,  99574,  99583
  99610,  99843,  99901, 100031, 100135, 100375, 100522, 100544, 100895, 100915, 100939, 101138, 101208, 101232, 101353, 101357
 101420, 101482, 101803, 102001, 102119, 102146, 102160, 102242, 102412, 102511, 102652, 102654, 102738, 102765, 102821, 102899
 102945, 103014, 103030, 103065, 103242, 103313, 103322, 103490, 103623, 103626, 103691, 103714, 103871, 104034, 104066, 104105
 104119, 104384, 104424, 104450, 104462, 104797, 104990, 105102, 105129, 105170, 105273, 105279, 105308, 105497, 105820, 106089
** ... 13 like lines cut
*Elset, elset=_surface_2_All_S2, internal
     95,    198,   1350,   1870,   2418,   6701,  12493,  13179,  13345,  13376,  13521,  15576,  15967,  19629,  19649,  20395
  21437,  23241,  23755,  25538,  26056,  27486,  28448,  30236,  33710,  34068,  34687,  34991,  35868,  37269,  37776,  38077
  38173,  38364,  38395,  38499,  39253,  40460,  40860,  41081,  42617,  42833,  49071,  49136,  53382,  54415,  55088,  55539
  55708,  56405,  56412,  56442,  57499,  63982,  68219,  70149,  70223,  71101,  72422,  72547,  72892,  73396,  73405,  74251
  74279,  75090,  76042,  79950,  81056,  81311,  81491,  81542,  81697,  81962,  82023,  83156,  83168,  83192,  84393,  84515
  84932,  87846,  88554,  88688,  89009,  89333,  89366,  89372,  89373,  89473,  89532,  89595,  89888,  89911,  89936,  90094
  90147,  90155,  90377,  90818,  90856,  91152,  91175,  91384,  91476,  91725,  92063,  92952,  93299,  93400,  93466,  93590
  93769,  93797,  93835,  93862,  93931,  93968,  94196,  94393,  94521,  94677,  94688,  94842,  94848,  95048,  95407,  95434
  95457,  95462,  95537,  95673,  95796,  95835,  95933,  95972,  96097,  96408,  96475,  96551,  96652,  96827,  96909,  97042
  97130,  97313,  97588,  97651,  97830,  97831,  97845,  98002,  98164,  98171,  98199,  98314,  98456,  98515,  98718,  98858
  99044,  99070,  99225,  99450,  99688,  99759,  99774, 100281, 100649, 100879, 100916, 101047, 101079, 101513, 101877, 101898
 101998, 102071, 102175, 102345, 102526, 102915, 103120, 103179, 103230, 103300, 103322, 103347, 103372, 103413, 103625, 103780
 104069, 104266, 104270, 104433, 104645, 104838, 105290, 105291, 105444, 105511, 105543, 105554, 105577, 105816, 105822, 105981
 106039, 106119, 106337, 106356, 106426, 106639, 107017, 107197, 107453, 107522, 107655, 107693, 107702, 107788, 107905, 108147
 108171, 108354, 108404, 108627, 108844, 108876, 109027, 109100, 109253, 109287, 109356, 109751, 109949, 110806, 110893, 110920
 111068, 111145, 111176, 111239, 111283, 111455, 111690, 111956, 112081, 112158, 112345, 112398, 112459, 112524, 112635, 112932
 112995, 113094, 113329, 113330, 113334, 113389, 113554, 113698, 113896, 113900, 114018, 114105, 114287, 114340, 114443, 114613
 114656, 114770, 114865, 114991, 115018, 115135, 115415, 115468, 115544, 115594, 115770, 115840, 115947, 116141, 116619, 116852
 116901, 117255, 117398, 117403, 117468, 117548, 117825, 117831, 117907, 117918, 118013, 118036, 118050, 118118, 118218, 118241
 118304, 118448, 118914, 119026, 119132, 119135, 119385, 119538, 119746, 119766, 119775, 119784, 119867, 119974, 119983, 120231
** ... 4 like lines cut
*Elset, elset=_surface_2_All_S1, internal
    645,    877,   1059,   4987,   9869,  10684,  12492,  12896,  13263,  13820,  15103,  16168,  16771,  16818,  17398,  18343
  19974,  20947,  21660,  22289,  24052,  24067,  25630,  26326,  27111,  27919,  28323,  28530,  28651,  32332,  32882,  32907
  34972,  35851,  36227,  36293,  37313,  38331,  38561,  38965,  38979,  39160,  39277,  40027,  42986,  43030,  44922,  45365
  48847,  50366,  52976,  53107,  53771,  53803,  54769,  55135,  55231,  58337,  58983,  59044,  59983,  60983,  62372,  62458
  63742,  63977,  68870,  71112,  72746,  73470,  74126,  75213,  75670,  75839,  76760,  78063,  78437,  78657,  78888,  78911
  79201,  79208,  79875,  80079,  80566,  81771,  83199,  83601,  84656,  84983,  85188,  85328,  85336,  87277,  89228,  89276
  89734,  89881,  90097,  91430,  91573,  92165,  92729,  93702,  93724,  94212,  94252,  94669,  94786,  95634,  96928,  97041
  97198,  97360,  97373,  97615,  97747,  97884,  98035,  99682, 101124, 101449, 101494, 101674, 101753, 102102, 102441, 102510
 103015, 103596, 103669, 103859, 103955, 104095, 104145, 104246, 104285, 104403, 104423, 104462, 105538, 105578, 106065, 106152
 106841, 106857, 107051, 109252, 109583, 109782, 110004, 110312, 110784, 110854, 110875, 111478, 111617, 111761, 112650, 113086
 113593, 113611, 113879, 114093, 114319, 114887, 115665, 116044, 116058, 116336, 116505, 116774, 116983, 117208, 117835, 118240
 118767, 118833, 118987, 119183, 119316, 119335, 119339, 119662, 119737, 120535, 126433, 127064, 127685, 129982, 130560, 130923
 131678, 133130, 134035, 134300, 134395, 136423, 137358, 139146, 139839, 139987, 140284, 141258, 145626, 149120, 149401, 150006
 150377, 151112, 153528, 153855, 153943, 154110, 154905, 155726, 156244, 157318, 157852, 158038, 158049, 158105, 158617, 158897
 159334, 160654, 161774, 163136, 164538, 165300, 165463, 166314, 166569, 167213, 167423, 168604, 168984, 169699, 170207, 171140
 171210, 171339, 171921, 172171
*Elset, elset=_surface_2_All_S3, internal
   2500,   2898,   3958,   4386,   4749,   5634,   6877,   7820,   7869,   8165,   8364,   8646,   9247,   9463,   9474,   9491
   9502,   9585,  10307,  10516,  11149,  11162,  11591,  11657,  12014,  12094,  12365,  12750,  12821,  12835,  12869,  12946
  13024,  13074,  13076,  13079,  13119,  13144,  13162,  13167,  13399,  13433,  13446,  13460,  13471,  13474,  13496,  13543
  13612,  13658,  13705,  13723,  13745,  13819,  13851,  13938,  14202,  14255,  14284,  14289,  14328,  14342,  14343,  14344
  14514,  14613,  14670,  14699,  14722,  14734,  14736,  14759,  14843,  14861,  14864,  14956,  14970,  15000,  15002,  15004
  15024,  15034,  15042,  15099,  15124,  15128,  15138,  15150,  15231,  15275,  15288,  15305,  15326,  15349,  15354,  15397
  15398,  15402,  15429,  15430,  15458,  15466,  15485,  15504,  15524,  15540,  15544,  15545,  15547,  15551,  15561,  15577
  15593,  15610,  15616,  15627,  15628,  15630,  15634,  15659,  15663,  15702,  15721,  15730,  15736,  15743,  15744,  15750
  15752,  15765,  15772,  15782,  15793,  15810,  15811,  15821,  15849,  15856,  15874,  15875,  15900,  15906,  15922,  15932
  15943,  15950,  15966,  15971,  15978,  15988,  15991,  16008,  16013,  16014,  16018,  16027,  16054,  16058,  16060,  16075
  16084,  16089,  16104,  16107,  16108,  16109,  16115,  16238,  16258,  16261,  16271,  16276,  16295,  16308,  16315,  16340
  16360,  16361,  16401,  16429,  16459,  16464,  16474,  16483,  16569,  16624,  16633,  16642,  16681,  16955,  17010,  17133
  17309,  17365,  17396,  17454,  17821,  17829,  17851,  18039,  18044,  18173,  18189,  18266,  18789,  18910,  18914,  18995
  19128,  19294,  19306,  19359,  19393,  19449,  19463,  19487,  19628,  19751,  19814,  19902,  19983,  19993,  20101,  20126
  20189,  20194,  20220,  20224,  20315,  20340,  20399,  20422,  20464,  20525,  20532,  20718,  20739,  20816,  20869,  20917
  21014,  21053,  21119,  21126,  21174,  21435,  21463,  21487,  21498,  21521,  21530,  22054,  22676,  22947,  23051,  23178
  23184,  23185,  23320,  23585,  23694,  23771,  23868,  23952,  23994,  24005,  24035,  24039,  24094,  24100,  24117,  24153
  24168,  24216,  24226,  24228,  24231,  24235,  24236,  24241,  24242,  24284,  24303,  24333,  24356,  24364,  24380,  24438
  24459,  24482,  24505,  24557,  24584,  24612,  24653,  24660,  24812,  24814,  24830,  24891,  25038,  25047,  25054,  25055
  25106,  25114,  25126,  25165,  25196,  25213,  25224,  25239,  25245,  25292,  25304,  25320,  25321,  25329,  25378,  25394
** ... 517 like lines cut
*Surface, type=ELEMENT, name=surface_2_All
_surface_2_All_S4, S4
_surface_2_All_S2, S2
_surface_2_All_S1, S1
_surface_2_All_S3, S3
*Elset, elset=_surface_3_All_S3, internal
    145,   7592,   8327,  12241,  13512,  14013,  14109,  14496,  14664,  14708,  14966,  14967,  15006,  15242,  15318,  15357
  15359,  15363,  15369,  15451,  15529,  15581,  15605,  15617,  15753,  16277,  16294,  16425,  16460,  16517,  20032,  20670
  20826,  20893,  24864,  24876,  25645,  25646,  34437,  34832,  35541,  36275,  36370,  36895,  37582,  41319,  42145,  43074
  43826,  47119,  47370,  49984,  50387,  52733,  53826,  53954,  54076,  54315,  54462,  55348,  56321,  57608,  60258,  62369
  64921,  66147,  66705,  67337,  67676,  68081,  68362,  69197,  74356,  74513,  75860,  77899,  81259,  81978,  86044,  86340
  86639,  86652,  86673,  86677,  86700,  86723,  86730,  86737,  86738,  86757,  86764,  86769,  86775,  86791,  86796,  86822
  86824,  86833,  86834,  86843,  86849,  86879,  86880,  86882,  86887,  86909,  86910,  86915,  86917,  86921,  86930,  86931
  86948,  86961,  86970,  86971,  86974,  86981,  86983,  86984,  86988,  86989,  87003,  87005,  87021,  87022,  87024,  87027
  87036,  87053,  87061,  87066,  87069,  87077,  87081,  87084,  87092,  87099,  87119,  87122,  87124,  87125,  87126,  87128
  87134,  87154,  87158,  87159,  87187,  87188,  87213,  87227,  87241,  87247,  87254,  87263,  87280,  87282,  87290,  87308
  87322,  87329,  87341,  87348,  87355,  87360,  87377,  87384,  87408,  87411,  87428,  87434,  87441,  87442,  87448,  87491
  87505,  87508,  87513,  87518,  87540,  87543,  87549,  87551,  87560,  87571,  87576,  87583,  87585,  87599,  87608,  87621
  87628,  87652,  87653,  87661,  87667,  87671,  87684,  87687,  87696,  87707,  87727,  87734,  87735,  87753,  87762,  87782
  87784,  87785,  87791,  87792,  87798,  87801,  87812,  87816,  87818,  87819,  87822,  87823,  87829,  87831,  87836,  87849
  87850,  87871,  87872,  87879,  87893,  87900,  87906,  87922,  87924,  87938,  87940,  87943,  87981,  87988,  88001,  88003
  88010,  88021,  88036,  88042,  88044,  88052,  88059,  88081,  88086,  88087,  88100,  88103,  88109,  88119,  88120,  88123
  88149,  88154,  88159,  88164,  88166,  88168,  88177,  88178,  88182,  88192,  88211,  88215,  88216,  88219,  88227,  88228
  88232,  88263,  88266,  88278,  88281,  88285,  88292,  88295,  88300,  88316,  88318,  88350,  88358,  88361,  88375,  88386
  88389,  88396,  88407,  88410,  88421,  88423,  88431,  88432,  88441,  88443,  88451,  88452,  88453,  88460,  88474,  88481
  88496,  88513,  88514,  88522,  88524,  88531,  88533,  88545,  88556,  88567,  88579,  88581,  88582,  88598,  88599,  88606
** ... 18 like lines cut
*Elset, elset=_surface_3_All_S1, internal
  12244,  31043,  47371,  60234,  85946,  87082,  87112,  87177,  87229,  87302,  87316,  87332,  88601,  88766,  88871,  88943
  88970,  90623,  94973,  95298,  96889,  97719, 101872, 103922, 104499, 104513, 106921, 106962, 122498, 128439, 135817, 136109
 136122, 147446, 150658, 160442, 161463, 163712, 171110
*Elset, elset=_surface_3_All_S4, internal
  12648,  12652,  15573,  18393,  25862,  27264,  48250,  54455,  57408,  74445,  85353,  87312,  87315,  87923,  87954,  88037
  88101,  88260,  89031,  99747, 102216, 104214, 132558, 132767, 141202
*Elset, elset=_surface_3_All_S2, internal
  38884,  53830,  85662,  86230,  86686,  86968,  87083,  87097,  87127,  87131,  87230,  87260,  87318,  87331,  87335,  87339
  87378,  87431,  87440,  87466,  87474,  87748,  87905,  87936,  88095,  88187,  88298,  88342,  88426,  88593,  88819,  88872
  88888,  88916,  88942,  88968,  88994,  89038,  89792,  99150, 105759, 108119, 121203, 129207, 135462, 135545, 158723
*Surface, type=ELEMENT, name=surface_3_All
_surface_3_All_S3, S3
_surface_3_All_S1, S1
_surface_3_All_S4, S4
_surface_3_All_S2, S2
** Section: Rubber
*Solid Section, elset=RubberSet, material=Rubber
,
*End Part
**  
**
** ASSEMBLY
**
*Assembly, name=Assembly
**  
*Instance, name=final_model-1, part=final_model
*End Instance
**  
*End Assembly
** 
** MATERIALS
** 
*Material, name=Rubber
*Density
 1.08e-09,
*Hyperelastic, neo hooke
 0.241, 0.416667,       0.,       0.,       0.,       0.
** 
** INTERACTION PROPERTIES
** 
*Surface Interaction, name=IntProp-1
1.,
*Surface Behavior, pressure-overclosure=HARD
** 
** BOUNDARY CONDITIONS
** 
** Name: BC-1 Type: Displacement/Rotation
*Boundary
final_model-1.surface_0_Bottom, 1, 1
final_model-1.surface_0_Bottom, 2, 2
final_model-1.surface_0_Bottom, 3, 3
final_model-1.surface_0_Bottom, 4, 4
final_model-1.surface_0_Bottom, 5, 5
final_model-1.surface_0_Bottom, 6, 6
** 
** INTERACTIONS
** 
** Interaction: Int-1
*Contact Pair, interaction=IntProp-1, type=SURFACE TO SURFACE
final_model-1.surface_0_All,
** Interaction: Int-2
*Contact Pair, interaction=IntProp-1, type=SURFACE TO SURFACE
final_model-1.surface_1_All,
** Interaction: Int-3
*Contact Pair, interaction=IntProp-1, type=SURFACE TO SURFACE
final_model-1.surface_2_All,
** Interaction: Int-4
*Contact Pair, interaction=IntProp-1, type=SURFACE TO SURFACE
final_model-1.surface_3_All,
** ----------------------------------------------------------------
** 
** STEP: Step-1
** 
*Step, name=Step-1, nlgeom=YES
*Static
1., 1., 1e-05, 1.
** 
** LOADS
** 
** Name: Load-1   Type: Pressure
*Dsload
final_model-1.surface_1_All, P, 0.06
** 
** OUTPUT REQUESTS
** 
*Restart, write, frequency=0
** 
** FIELD OUTPUT: F-Output-1
** 
*Output, field, variable=PRESELECT
** 
** HISTORY OUTPUT: H-Output-1
** 
*Output, history, variable=PRESELECT
*End Step
