*Heading
** Job name: TopOptRun Model name: Model-1
** Generated by: Abaqus/CAE 2021
*Preprint, echo=NO, model=NO, history=NO, contact=NO
**
** PARTS
**
*Part, name=final_model
*Node
      1,   2.03805137,   7.97831917,           0.
      2,   2.03805137,   7.97831917,          80.
      3,  0.719013333,  -1.73215878,          77.
      4,  0.719013333,  -1.73215878,           3.
      5,   0.98941642,   8.28467751,           0.
      6,  -0.10001339,   8.36932468,           0.
      7,  -1.18699241,   8.25438213,           0.
      8,  -2.23882508,   7.95641136,           0.
      9,  -3.23262286,   7.50020027,           0.
     10,   -4.1582799,   6.91748285,           0.
     11,  -5.01594448,   6.23830366,           0.
     12,   -5.8085947,   5.48412085,           0.
     13,  -6.53319216,   4.66437244,           0.
     14,  -7.17515659,   3.77860522,           0.
     15,  -7.70876551,   2.82392955,           0.
     16,  -8.10228634,   1.80381978,           0.
     17,  -8.32570171,  0.733771086,           0.
     18,  -8.35921288, -0.358716369,           0.
     19,  -8.19966125,  -1.44007206,           0.
     20,  -7.86162806,  -2.47978497,           0.
** ... 20703 like lines cut
*Element, type=C3D4
    1, 10074,  2887, 10075,  2883
    2, 10076, 10077, 10078,  5333
    3,  5333, 10077, 10078, 10079
    4, 10080, 10081, 10082, 10083
    5, 10080, 10084, 10085, 10086
    6, 10080, 10081, 10083, 10085
    7, 10080, 10087, 10088, 10086
    8, 10080, 10086, 10088, 10089
    9, 10090, 10091, 10092, 10093
   10, 10094, 10095, 10096, 10097
   11,  2196, 10098, 10099, 10100
   12, 10090, 10101, 10100, 10098
   13, 10090, 10092, 10091, 10099
   14,  6481, 10102, 10103, 10104
   15, 10102,  1959, 10104,  6481
   16, 10102, 10105, 10106, 10107
   17,  1956, 10102,  1957, 10103
   18, 10108, 10109, 10110, 10111
   19, 10112, 10113, 10114,  4034
   20, 10112, 10115, 10116, 10117
** ... 94220 like lines cut
*Nset, nset=surface_0_All
    1,    2,    5,    6,    7,    8,    9,   10,   11,   12,   13,   14,   15,   16,   17,   18
   19,   20,   21,   22,   23,   24,   25,   26,   27,   28,   29,   30,   31,   32,   33,   34
   35,   36,   37,   38,   39,   40,   41,   42,   43,   44,   45,   46,   47,   48,   49,   50
   51,   52,   53,   54,   55,   56,   57,   58,   59,   60,   61,   62,   63,   64,   65,   66
   67,   68,   69,   70,   71,   72,   73,   74,   75,   76,   77,   78,   79,   80,   81,   82
   83,   84,   85,   86,   87,   88,   89,   90,   91,   92,   93,   94,   95,   96,   97,   98
   99,  100,  101,  102,  103,  104,  105,  106,  107,  108,  109,  110,  111,  112,  113,  114
  115,  116,  117,  118,  119,  120,  121,  122,  123,  124,  125,  126,  127,  128,  129,  130
  131,  132,  133,  134,  135,  136,  137,  138,  139,  140,  141,  142,  143,  144,  145,  146
  147,  148,  149,  150,  151,  152,  153,  154,  155,  156,  157,  158,  159,  160,  161,  162
  163,  164,  165,  166,  167,  168,  169,  170,  171,  172,  173,  174,  175,  176,  177,  178
  179,  180,  181,  182,  183,  184,  185,  186,  187,  188,  189,  363,  364,  365,  366,  367
  368,  369,  370,  371,  372,  373,  374,  375,  376,  377,  378,  379,  380,  381,  382,  383
  384,  385,  386,  387,  388,  389,  390,  391,  392,  393,  394,  395,  396,  397,  398,  399
  400,  401,  402,  403,  404,  405,  406,  407,  408,  409,  410,  411,  412,  413,  414,  415
  416,  417,  418,  419,  420,  421,  422,  423,  424,  425,  426,  427,  428,  429,  430,  431
  432,  433,  434,  435,  436,  437,  438,  439,  440,  441,  442,  443,  444,  445,  446,  447
  448,  449,  450,  451,  452,  453,  454,  455,  456,  457,  458,  459,  460,  461,  462,  463
  464,  465,  466,  467,  468,  469,  470,  471,  472,  473,  474,  475,  476,  477,  478,  479
  480,  481,  482,  483,  484,  485,  486,  487,  488,  489,  490,  491,  492,  493,  494,  495
** ... 408 like lines cut
*Elset, elset=surface_0_All
    54,    72,    85,   155,   219,   227,   268,   272,   274,   367,   416,   482,   492,   522,   541,   572
   576,   655,   674,   734,   768,   786,   790,   864,   865,   877,   915,   918,   919,   933,   936,   970
   989,  1054,  1147,  1152,  1216,  1305,  1376,  1465,  1537,  1595,  1672,  1869,  1912,  1917,  2114,  2185
  2252,  2332,  2352,  2354,  2355,  2414,  2726,  2802,  2897,  3094,  3095,  3098,  3123,  3231,  3237,  3271
  3301,  3310,  3315,  3317,  3337,  3340,  3347,  3389,  3434,  3509,  3570,  3654,  3790,  3807,  3820,  3859
  3870,  3906,  4126,  4165,  4254,  4255,  4295,  4393,  4622,  4836,  4878,  4982,  5007,  5017,  5085,  5114
  5158,  5245,  5349,  5461,  5470,  5527,  5537,  5575,  5596,  5598,  5704,  5861,  5868,  5907,  5944,  5992
  6022,  6086,  6087,  6093,  6106,  6112,  6113,  6126,  6182,  6183,  6299,  6303,  6310,  6312,  6319,  6339
  6356,  6360,  6366,  6461,  6572,  6573,  6582,  6643,  6666,  6670,  6681,  6689,  6690,  6727,  6799,  6803
  6816,  6834,  6850,  6861,  6864,  6887,  6910,  6921,  6929,  6974,  6975,  6981,  7001,  7068,  7086,  7097
  7138,  7151,  7152,  7187,  7188,  7192,  7297,  7300,  7301,  7305,  7306,  7330,  7425,  7433,  7458,  7645
  7731,  7864,  7869,  7899,  7946,  7953,  7954,  7992,  8033,  8060,  8142,  8166,  8168,  8188,  8210,  8211
  8233,  8242,  8296,  8302,  8383,  8389,  8407,  8503,  8542,  8553,  8599,  8657,  8668,  8686,  8702,  8710
  8742,  8748,  8813,  8846,  8869,  8946,  9013,  9070,  9212,  9273,  9277,  9320,  9448,  9534,  9569,  9585
  9613,  9655,  9680,  9725,  9789,  9797,  9838,  9860,  9955, 10059, 10096, 10128, 10144, 10145, 10163, 10166
 10212, 10242, 10253, 10327, 10365, 10427, 10428, 10431, 10450, 10480, 10497, 10588, 10624, 10680, 10696, 10706
 10730, 10748, 10771, 10792, 10798, 10800, 10823, 10843, 10851, 10996, 10999, 11015, 11017, 11030, 11083, 11110
 11195, 11289, 11301, 11314, 11318, 11415, 11416, 11420, 11440, 11449, 11498, 11509, 11558, 11581, 11639, 11663
 11748, 11845, 11847, 11903, 11936, 11938, 11947, 11961, 11966, 11983, 11984, 11989, 11991, 11993, 12001, 12015
 12017, 12021, 12023, 12029, 12031, 12048, 12063, 12069, 12074, 12076, 12084, 12086, 12092, 12096, 12098, 12103
** ... 833 like lines cut
*Nset, nset=surface_0_Head
    2,  144,  145,  146,  147,  148,  149,  150,  151,  152,  153,  154,  155,  156,  157,  158
  159,  160,  161,  162,  163,  164,  165,  166,  167,  168,  169,  170,  171,  172,  173,  174
  175,  176,  177,  178,  179,  180,  181,  182,  183,  184,  185,  186,  187,  188,  189, 6836
 6837, 6838, 6839, 6840, 6841, 6842, 6843, 6844, 6845, 6846, 6847, 6848, 6849, 6850, 6851, 6852
 6853, 6854, 6855, 6856, 6857, 6858, 6859, 6860, 6861, 6862, 6863, 6864, 6865, 6866, 6867, 6868
 6869, 6870, 6871, 6872, 6873, 6874, 6875, 6876, 6877, 6878, 6879, 6880, 6881, 6882, 6883, 6884
 6885, 6886, 6887, 6888, 6889, 6890, 6891, 6892, 6893, 6894, 6895, 6896, 6897, 6898, 6899, 6900
 6901, 6902, 6903, 6904, 6905, 6906, 6907, 6908, 6909, 6910, 6911, 6912, 6913, 6914, 6915, 6916
 6917, 6918, 6919, 6920, 6921, 6922, 6923, 6924, 6925, 6926, 6927, 6928, 6929, 6930, 6931, 6932
 6933, 6934, 6935, 6936, 6937, 6938, 6939, 6940, 6941, 6942, 6943, 6944, 6945, 6946, 6947, 6948
 6949, 6950, 6951, 6952, 6953, 6954, 6955, 6956, 6957, 6958, 6959, 6960, 6961, 6962, 6963, 6964
 6965, 6966, 6967, 6968, 6969, 6970, 6971, 6972, 6973, 6974, 6975, 6976, 6977, 6978, 6979, 6980
 6981, 6982, 6983, 6984, 6985, 6986, 6987, 6988, 6989, 6990, 6991, 6992, 6993, 6994, 6995, 6996
 6997, 6998, 6999, 7000, 7001, 7002, 7003, 7004, 7005, 7006, 7007, 7008, 7009, 7010, 7011, 7012
 7013, 7014, 7015, 7016, 7017
*Elset, elset=surface_0_Head
   219,  2802,  5575,  5861,  5907,  5992,  6022,  6086,  6087,  7138,  7151,  7152,  8210,  8211,  8389,  9013
 10144, 10145, 10242, 11318, 12113, 12693, 12841, 14262, 14265, 17563, 17566, 18077, 19168, 19201, 19290, 19567
 19767, 20365, 20372, 20403, 20425, 20445, 20463, 20776, 21181, 21247, 21250, 21280, 21373, 21413, 21470, 21536
 21547, 21551, 21570, 21715, 21721, 21726, 21741, 21744, 21770, 21832, 21855, 21856, 21859, 21910, 21927, 22003
 22069, 22073, 22077, 22079, 22084, 22103, 22124, 22215, 22241, 22297, 22317, 22340, 22346, 22350, 22366, 22446
 22455, 22523, 22561, 22585, 22673, 22714, 22781, 28048, 28104, 28236, 28275, 33533, 33990, 33997, 34018, 34053
 34136, 34241, 34255, 34304, 34428, 36015, 36976, 37905, 39207, 39440, 42391, 43722, 45153, 45165, 45219, 45271
 45273, 45340, 45357, 45362, 45367, 45368, 45439, 45445, 45473, 45497, 45502, 45506, 45512, 45569, 46373, 46429
 46451, 46453, 46490, 46496, 48787, 50064, 50165, 50878, 51062, 51740, 52693, 54261, 54265, 54270, 54277, 54281
 54287, 54305, 54306, 54321, 54323, 54333, 54339, 54340, 54341, 54343, 54345, 54346, 54347, 54353, 54354, 54361
 54364, 54366, 54377, 54397, 54417, 54418, 54424, 54428, 54435, 54440, 54441, 54454, 54464, 54465, 54479, 54480
 54491, 54495, 54500, 54507, 54519, 54529, 54536, 54543, 54544, 54552, 54569, 54572, 54583, 54593, 54599, 54603
 54619, 54620, 54624, 54626, 54627, 54628, 54633, 54641, 54642, 54648, 54654, 54655, 54665, 54670, 54677, 54680
 54686, 54687, 54690, 54696, 54699, 54701, 54718, 54722, 54725, 54734, 54735, 54754, 54757, 54760, 54765, 54766
 54782, 54785, 54789, 54800, 54802, 54803, 54820, 54825, 54831, 54836, 54838, 54842, 54847, 54848, 54859, 54860
 54869, 54870, 54878, 54883, 54884, 54887, 54890, 54896, 54900, 54904, 54914, 54916, 54919, 54927, 54931, 54934
 54938, 54942, 54943, 54947, 54949, 54954, 54956, 54961, 54964, 54965, 54967, 54976, 54982, 54983, 54993, 54994
 54995, 54998, 55008, 55012, 55016, 55027, 55028, 55036, 55038, 55039, 55055, 55060, 55067, 55070, 55075, 55080
 55082, 55083, 55087, 55088, 55091, 55094, 55096, 55098, 55099, 55100, 55106, 55109, 55111, 55113, 55118, 55120
 55124, 55130, 55145, 55146, 55150, 55151, 55153, 55164, 55165, 55170, 55172, 55175, 55183, 55199, 55202, 55203
** ... 6 like lines cut
*Nset, nset=surface_0_Bottom
   1,   5,   6,   7,   8,   9,  10,  11,  12,  13,  14,  15,  16,  17,  18,  19
  20,  21,  22,  23,  24,  25,  26,  27,  28,  29,  30,  31,  32,  33,  34,  35
  36,  37,  38,  39,  40,  41,  42,  43,  44,  45,  46,  47,  48,  49,  50, 363
 364, 365, 366, 367, 368, 369, 370, 371, 372, 373, 374, 375, 376, 377, 378, 379
 380, 381, 382, 383, 384, 385, 386, 387, 388, 389, 390, 391, 392, 393, 394, 395
 396, 397, 398, 399, 400, 401, 402, 403, 404, 405, 406, 407, 408, 409, 410, 411
 412, 413, 414, 415, 416, 417, 418, 419, 420, 421, 422, 423, 424, 425, 426, 427
 428, 429, 430, 431, 432, 433, 434, 435, 436, 437, 438, 439, 440, 441, 442, 443
 444, 445, 446, 447, 448, 449, 450, 451, 452, 453, 454, 455, 456, 457, 458, 459
 460, 461, 462, 463, 464, 465, 466, 467, 468, 469, 470, 471, 472, 473, 474, 475
 476, 477, 478, 479, 480, 481, 482, 483, 484, 485, 486, 487, 488, 489, 490, 491
 492, 493, 494, 495, 496, 497, 498, 499, 500, 501, 502, 503, 504, 505, 506, 507
 508, 509, 510, 511, 512, 513, 514, 515, 516, 517, 518, 519, 520, 521, 522, 523
 524, 525, 526, 527, 528, 529, 530, 531, 532, 533, 534, 535, 536, 537, 538, 539
 540, 541, 542, 543, 544, 545, 546
*Elset, elset=surface_0_Bottom
  3271,  6666,  6690,  8166,  8168,  8302,  8407,  9860, 11938, 11966, 12023, 12029, 12031, 12383, 12441, 12477
 12481, 12499, 12502, 12504, 12505, 12586, 12610, 12614, 12627, 12631, 13128, 13139, 13153, 13156, 13161, 13197
 13200, 13215, 13217, 13229, 13366, 13391, 13435, 13437, 13464, 14044, 14057, 14061, 14072, 14084, 14088, 14101
 14109, 14121, 14128, 14129, 14140, 14143, 14149, 14167, 14172, 14175, 14185, 14189, 14198, 14208, 14212, 14225
 14227, 14230, 14263, 14281, 14309, 14341, 14343, 14353, 14357, 14367, 14368, 14369, 14378, 14390, 14391, 14405
 14406, 14411, 14414, 14415, 14417, 14421, 14426, 14428, 14432, 14433, 14439, 14451, 14464, 14473, 14475, 14478
 14479, 14481, 14488, 14494, 14502, 14509, 14510, 14512, 14530, 14532, 14539, 14542, 14543, 14547, 14554, 14555
 14560, 14567, 14568, 14572, 14575, 14577, 14579, 14582, 14584, 14591, 14595, 14610, 14618, 14619, 14620, 14625
 14635, 14637, 14648, 14653, 14660, 14666, 14669, 14671, 14674, 14676, 14685, 14693, 14708, 14746, 14759, 14777
 14781, 14792, 14796, 14804, 14805, 14817, 14818, 14844, 14851, 14857, 14858, 14862, 14873, 14882, 14883, 14885
 14891, 14892, 14906, 14908, 14913, 14917, 14918, 14920, 14921, 14922, 14925, 14927, 14934, 14938, 14942, 14945
 14948, 14949, 14959, 14960, 14964, 14965, 14966, 14971, 14972, 14976, 14982, 14984, 14985, 14991, 14995, 14996
 14999, 15003, 15004, 15006, 15007, 15009, 15014, 15023, 15027, 15030, 15038, 15039, 15040, 15042, 15044, 15049
 15053, 15058, 15060, 15065, 15068, 15070, 15075, 15077, 15079, 15082, 15083, 15085, 15086, 15092, 15095, 15106
 15116, 15120, 15121, 15122, 15127, 15128, 15131, 15132, 15133, 15140, 15141, 15145, 15147, 15149, 15155, 15160
 15170, 15176, 15179, 15181, 15186, 15192, 15194, 15196, 15216, 15221, 15230, 15232, 15236, 15239, 15240, 15250
 15251, 15252, 15257, 15258, 15260, 15263, 15264, 15273, 15282, 15283, 15284, 15290, 15296, 15303, 15304, 15308
 15310, 15320, 15325, 15327, 15339, 15341, 15344, 15349, 15358, 15363, 15376, 15380, 15386, 15410, 15429, 15430
 15478, 15501, 15502, 15509, 15512, 15516, 15518, 15523, 15524, 15525, 15538, 15545, 15554, 15562, 15565, 15567
 15570, 15571, 15580, 15582, 15586, 15599, 15600, 15603, 15606, 15611, 15644, 15646, 15661, 15672, 15694, 15701
** ... 6 like lines cut
*Nset, nset=surface_0_Lateral
    1,    2,    5,    6,    7,    8,    9,   10,   11,   12,   13,   14,   15,   16,   17,   18
   19,   20,   21,   22,   23,   24,   25,   26,   27,   28,   29,   30,   31,   32,   33,   34
   35,   36,   37,   38,   39,   40,   41,   42,   43,   44,   45,   46,   47,   48,   49,   50
   51,   52,   53,   54,   55,   56,   57,   58,   59,   60,   61,   62,   63,   64,   65,   66
   67,   68,   69,   70,   71,   72,   73,   74,   75,   76,   77,   78,   79,   80,   81,   82
   83,   84,   85,   86,   87,   88,   89,   90,   91,   92,   93,   94,   95,   96,   97,   98
   99,  100,  101,  102,  103,  104,  105,  106,  107,  108,  109,  110,  111,  112,  113,  114
  115,  116,  117,  118,  119,  120,  121,  122,  123,  124,  125,  126,  127,  128,  129,  130
  131,  132,  133,  134,  135,  136,  137,  138,  139,  140,  141,  142,  143,  144,  145,  146
  147,  148,  149,  150,  151,  152,  153,  154,  155,  156,  157,  158,  159,  160,  161,  162
  163,  164,  165,  166,  167,  168,  169,  170,  171,  172,  173,  174,  175,  176,  177,  178
  179,  180,  181,  182,  183,  184,  185,  186,  187,  188,  189,  547,  548,  549,  550,  551
  552,  553,  554,  555,  556,  557,  558,  559,  560,  561,  562,  563,  564,  565,  566,  567
  568,  569,  570,  571,  572,  573,  574,  575,  576,  577,  578,  579,  580,  581,  582,  583
  584,  585,  586,  587,  588,  589,  590,  591,  592,  593,  594,  595,  596,  597,  598,  599
  600,  601,  602,  603,  604,  605,  606,  607,  608,  609,  610,  611,  612,  613,  614,  615
  616,  617,  618,  619,  620,  621,  622,  623,  624,  625,  626,  627,  628,  629,  630,  631
  632,  633,  634,  635,  636,  637,  638,  639,  640,  641,  642,  643,  644,  645,  646,  647
  648,  649,  650,  651,  652,  653,  654,  655,  656,  657,  658,  659,  660,  661,  662,  663
  664,  665,  666,  667,  668,  669,  670,  671,  672,  673,  674,  675,  676,  677,  678,  679
** ... 385 like lines cut
*Elset, elset=surface_0_Lateral
    54,    72,    85,   155,   227,   268,   272,   274,   367,   416,   482,   492,   522,   541,   572,   576
   655,   674,   734,   768,   786,   790,   864,   865,   877,   915,   918,   919,   933,   936,   970,   989
  1054,  1147,  1152,  1216,  1305,  1376,  1465,  1537,  1595,  1672,  1869,  1912,  1917,  2114,  2185,  2252
  2332,  2352,  2354,  2355,  2414,  2726,  2897,  3094,  3095,  3098,  3123,  3231,  3237,  3301,  3310,  3315
  3317,  3337,  3340,  3347,  3389,  3434,  3509,  3570,  3654,  3790,  3807,  3820,  3859,  3870,  3906,  4126
  4165,  4254,  4255,  4295,  4393,  4622,  4836,  4878,  4982,  5007,  5017,  5085,  5114,  5158,  5245,  5349
  5461,  5470,  5527,  5537,  5596,  5598,  5704,  5868,  5944,  6093,  6106,  6112,  6113,  6126,  6182,  6183
  6299,  6303,  6310,  6312,  6319,  6339,  6356,  6360,  6366,  6461,  6572,  6573,  6582,  6643,  6670,  6681
  6689,  6727,  6799,  6803,  6816,  6834,  6850,  6861,  6864,  6887,  6910,  6921,  6929,  6974,  6975,  6981
  7001,  7068,  7086,  7097,  7187,  7188,  7192,  7297,  7300,  7301,  7305,  7306,  7330,  7425,  7433,  7458
  7645,  7731,  7864,  7869,  7899,  7946,  7953,  7954,  7992,  8033,  8060,  8142,  8166,  8168,  8188,  8233
  8242,  8296,  8302,  8383,  8503,  8542,  8553,  8599,  8657,  8668,  8686,  8702,  8710,  8742,  8748,  8813
  8846,  8869,  8946,  9070,  9212,  9273,  9277,  9320,  9448,  9534,  9569,  9585,  9613,  9655,  9680,  9725
  9789,  9797,  9838,  9955, 10059, 10096, 10128, 10163, 10166, 10212, 10253, 10327, 10365, 10427, 10428, 10431
 10450, 10480, 10497, 10588, 10624, 10680, 10696, 10706, 10730, 10748, 10771, 10792, 10798, 10800, 10823, 10843
 10851, 10996, 10999, 11015, 11017, 11030, 11083, 11110, 11195, 11289, 11301, 11314, 11415, 11416, 11420, 11440
 11449, 11498, 11509, 11558, 11581, 11639, 11663, 11748, 11845, 11847, 11903, 11936, 11947, 11961, 11983, 11984
 11989, 11991, 11993, 12001, 12015, 12017, 12021, 12048, 12063, 12069, 12074, 12076, 12084, 12086, 12092, 12096
 12098, 12103, 12115, 12120, 12124, 12133, 12144, 12149, 12152, 12154, 12155, 12157, 12164, 12171, 12172, 12179
 12184, 12190, 12207, 12219, 12220, 12230, 12236, 12242, 12249, 12260, 12266, 12274, 12291, 12297, 12303, 12307
** ... 784 like lines cut
*Nset, nset=surface_1_All
     3,     4,   190,   191,   192,   193,   194,   195,   196,   197,   198,   199,   200,   201,   202,   203
   204,   205,   206,   207,   208,   209,   210,   211,   212,   213,   214,   215,   216,   217,   218,   219
   220,   221,   222,   223,   224,   225,   226,   227,   228,   229,   230,   231,   232,   233,   234,   235
   236,   237,   238,   239,   240,   241,   242,   243,   244,   245,   246,   247,   248,   249,   250,   251
   252,   253,   254,   255,   256,   257,   258,   259,   260,   261,   262,   263,   264,   265,   266,   267
   268,   269,   270,   271,   272,   273,   274,   275,   276,   277,   278,   279,   280,   281,   282,   283
   284,   285,   286,   287,   288,   289,   290,   291,   292,   293,   294,   295,   296,   297,   298,   299
   300,   301,   302,   303,   304,   305,   306,   307,   308,   309,   310,   311,   312,   313,   314,   315
   316,   317,   318,   319,   320,   321,   322,   323,   324,   325,   326,   327,   328,   329,   330,   331
   332,   333,   334,   335,   336,   337,   338,   339,   340,   341,   342,   343,   344,   345,   346,   347
   348,   349,   350,   351,   352,   353,   354,   355,   356,   357,   358,   359,   360,   361,   362,  7018
  7019,  7020,  7021,  7022,  7023,  7024,  7025,  7026,  7027,  7028,  7029,  7030,  7031,  7032,  7033,  7034
  7035,  7036,  7037,  7038,  7039,  7040,  7041,  7042,  7043,  7044,  7045,  7046,  7047,  7048,  7049,  7050
  7051,  7052,  7053,  7054,  7055,  7056,  7057,  7058,  7059,  7060,  7061,  7062,  7063,  7064,  7065,  7066
  7067,  7068,  7069,  7070,  7071,  7072,  7073,  7074,  7075,  7076,  7077,  7078,  7079,  7080,  7081,  7082
  7083,  7084,  7085,  7086,  7087,  7088,  7089,  7090,  7091,  7092,  7093,  7094,  7095,  7096,  7097,  7098
  7099,  7100,  7101,  7102,  7103,  7104,  7105,  7106,  7107,  7108,  7109,  7110,  7111,  7112,  7113,  7114
  7115,  7116,  7117,  7118,  7119,  7120,  7121,  7122,  7123,  7124,  7125,  7126,  7127,  7128,  7129,  7130
  7131,  7132,  7133,  7134,  7135,  7136,  7137,  7138,  7139,  7140,  7141,  7142,  7143,  7144,  7145,  7146
  7147,  7148,  7149,  7150,  7151,  7152,  7153,  7154,  7155,  7156,  7157,  7158,  7159,  7160,  7161,  7162
** ... 182 like lines cut
*Elset, elset=surface_1_All
    69,    84,    86,   139,   244,   254,   278,   299,   319,   383,   384,   437,   443,   490,   511,   518
   693,   819,  1073,  1382,  1434,  1442,  1455,  1457,  1460,  1461,  1494,  1552,  1559,  1592,  1681,  1800
  2053,  2057,  2151,  2506,  2510,  2755,  2891,  2948,  3296,  3329,  3402,  3834,  3902,  3963,  4203,  4285
  4335,  4546,  4821,  4830,  5485,  5688,  6121,  6256,  6514,  6719,  6735,  6832,  7009,  7013,  7081,  7117
  7123,  7180,  7218,  7282,  7473,  7475,  7476,  7594,  7667,  7706,  7726,  7727,  7855,  8016,  8068,  8402
  8480,  8717,  8775,  8872,  8905,  8906,  8982,  8988,  9000,  9063,  9067,  9260,  9381,  9977,  9994,  9996
 10160, 10270, 10297, 10378, 10543, 10581, 10658, 10660, 11062, 11111, 11460, 11557, 11671, 11742, 11789, 11930
 12045, 12121, 12160, 12231, 12261, 12263, 12265, 12279, 12288, 12313, 12320, 12333, 12352, 12368, 12393, 12401
 12479, 12514, 12540, 12542, 12557, 12561, 12593, 12603, 12632, 12634, 12643, 12662, 12672, 12681, 12687, 12740
 12745, 12763, 12798, 12879, 12916, 12919, 12990, 12993, 13017, 13020, 13023, 13032, 13039, 13042, 13049, 13050
 13057, 13087, 13132, 13138, 13177, 13226, 13242, 13295, 13311, 13327, 13334, 13359, 13414, 13421, 13430, 13451
 13453, 13525, 13561, 13574, 13587, 13606, 13609, 13626, 13631, 13672, 13682, 13694, 13737, 13739, 13747, 13757
 13764, 13768, 13782, 13790, 13795, 13811, 13812, 13817, 13856, 13925, 13950, 13955, 13970, 13978, 13991, 14001
 14002, 14010, 14012, 14013, 14022, 14130, 14174, 14202, 14218, 14410, 14465, 14659, 14907, 14992, 15045, 15146
 15206, 15235, 15244, 15298, 15334, 15390, 15401, 15447, 15473, 15479, 15485, 15699, 15760, 15878, 16190, 16351
 16369, 16462, 16480, 16520, 16521, 16577, 16593, 16602, 16622, 16635, 16681, 16846, 16878, 16898, 16988, 17065
 17077, 17097, 17333, 17363, 17374, 17390, 17396, 17424, 17426, 17439, 17622, 17654, 17690, 17744, 17782, 17795
 17805, 17831, 17841, 17859, 17875, 17893, 17921, 17971, 17977, 17992, 18104, 18225, 18239, 18246, 18281, 18322
 18328, 18344, 18379, 18403, 18428, 18472, 18504, 18576, 18729, 18823, 18839, 18965, 18987, 19000, 19003, 19012
 19029, 19045, 19100, 19112, 19178, 19206, 19213, 19288, 19297, 19301, 19306, 19307, 19347, 19348, 19350, 19391
** ... 384 like lines cut
*Nset, nset=surface_1_Head
    3,  190,  191,  192,  193,  194,  195,  196,  197,  198,  199,  200,  201,  202,  203,  204
  205,  206, 7018, 7019, 7020, 7021, 7022, 7023, 7024, 7025, 7026, 7027, 7028, 7029, 7030, 7031
 7032, 7033, 7034, 7035
*Elset, elset=surface_1_Head
  1455,  1457,  1461,  7081, 13525, 19942, 19965, 20476, 20488, 21308, 21580, 31334, 34075, 45319, 45561, 54501
 54750, 54823, 54980, 55005, 55148, 55286, 55293, 55309, 55310, 55314, 55325, 55326, 55328, 55381, 55387, 55390
 55412, 55420, 55427, 55432, 55438, 55442, 55444, 55446, 55471, 55473, 55476, 55485, 55487, 55488, 55489, 55500
 78817, 79093, 79095, 80823
*Nset, nset=surface_1_Bottom
    4,  207,  208,  209,  210,  211,  212,  213,  214,  215,  216,  217,  218,  219,  220,  221
  222,  223, 7036, 7037, 7038, 7039, 7040, 7041, 7042, 7043, 7044, 7045, 7046, 7047, 7048, 7049
 7050, 7051, 7052, 7053
*Elset, elset=surface_1_Bottom
 14202, 14907, 15146, 15206, 15235, 15298, 15479, 16602, 16846, 16898, 17065, 17077, 34450, 35839, 38910, 39969
 43767, 44579, 52344, 55528, 55533, 55541, 55561, 55578, 55594, 55595, 55598, 55600, 55601, 55626, 55664, 55668
 55685, 55708, 55716, 55717, 55718, 55719, 55721, 55744, 55749, 55750, 55753, 55754, 58808, 62387, 73457, 78267
 78292, 83039, 87848, 89404
*Nset, nset=surface_1_Lateral
     3,     4,   190,   191,   192,   193,   194,   195,   196,   197,   198,   199,   200,   201,   202,   203
   204,   205,   206,   207,   208,   209,   210,   211,   212,   213,   214,   215,   216,   217,   218,   219
   220,   221,   222,   223,   224,   225,   226,   227,   228,   229,   230,   231,   232,   233,   234,   235
   236,   237,   238,   239,   240,   241,   242,   243,   244,   245,   246,   247,   248,   249,   250,   251
   252,   253,   254,   255,   256,   257,   258,   259,   260,   261,   262,   263,   264,   265,   266,   267
   268,   269,   270,   271,   272,   273,   274,   275,   276,   277,   278,   279,   280,   281,   282,   283
   284,   285,   286,   287,   288,   289,   290,   291,   292,   293,   294,   295,   296,   297,   298,   299
   300,   301,   302,   303,   304,   305,   306,   307,   308,   309,   310,   311,   312,   313,   314,   315
   316,   317,   318,   319,   320,   321,   322,   323,   324,   325,   326,   327,   328,   329,   330,   331
   332,   333,   334,   335,   336,   337,   338,   339,   340,   341,   342,   343,   344,   345,   346,   347
   348,   349,   350,   351,   352,   353,   354,   355,   356,   357,   358,   359,   360,   361,   362,  7054
  7055,  7056,  7057,  7058,  7059,  7060,  7061,  7062,  7063,  7064,  7065,  7066,  7067,  7068,  7069,  7070
  7071,  7072,  7073,  7074,  7075,  7076,  7077,  7078,  7079,  7080,  7081,  7082,  7083,  7084,  7085,  7086
  7087,  7088,  7089,  7090,  7091,  7092,  7093,  7094,  7095,  7096,  7097,  7098,  7099,  7100,  7101,  7102
  7103,  7104,  7105,  7106,  7107,  7108,  7109,  7110,  7111,  7112,  7113,  7114,  7115,  7116,  7117,  7118
  7119,  7120,  7121,  7122,  7123,  7124,  7125,  7126,  7127,  7128,  7129,  7130,  7131,  7132,  7133,  7134
  7135,  7136,  7137,  7138,  7139,  7140,  7141,  7142,  7143,  7144,  7145,  7146,  7147,  7148,  7149,  7150
  7151,  7152,  7153,  7154,  7155,  7156,  7157,  7158,  7159,  7160,  7161,  7162,  7163,  7164,  7165,  7166
  7167,  7168,  7169,  7170,  7171,  7172,  7173,  7174,  7175,  7176,  7177,  7178,  7179,  7180,  7181,  7182
  7183,  7184,  7185,  7186,  7187,  7188,  7189,  7190,  7191,  7192,  7193,  7194,  7195,  7196,  7197,  7198
** ... 180 like lines cut
*Elset, elset=surface_1_Lateral
    69,    84,    86,   139,   244,   254,   278,   299,   319,   383,   384,   437,   443,   490,   511,   518
   693,   819,  1073,  1382,  1434,  1442,  1460,  1494,  1552,  1559,  1592,  1681,  1800,  2053,  2057,  2151
  2506,  2510,  2755,  2891,  2948,  3296,  3329,  3402,  3834,  3902,  3963,  4203,  4285,  4335,  4546,  4821
  4830,  5485,  5688,  6121,  6256,  6514,  6719,  6735,  6832,  7009,  7013,  7117,  7123,  7180,  7218,  7282
  7473,  7475,  7476,  7594,  7667,  7706,  7726,  7727,  7855,  8016,  8068,  8402,  8480,  8717,  8775,  8872
  8905,  8906,  8982,  8988,  9000,  9063,  9067,  9260,  9381,  9977,  9994,  9996, 10160, 10270, 10297, 10378
 10543, 10581, 10658, 10660, 11062, 11111, 11460, 11557, 11671, 11742, 11789, 11930, 12045, 12121, 12160, 12231
 12261, 12263, 12265, 12279, 12288, 12313, 12320, 12333, 12352, 12368, 12393, 12401, 12479, 12514, 12540, 12542
 12557, 12561, 12593, 12603, 12632, 12634, 12643, 12662, 12672, 12681, 12687, 12740, 12745, 12763, 12798, 12879
 12916, 12919, 12990, 12993, 13017, 13020, 13023, 13032, 13039, 13042, 13049, 13050, 13057, 13087, 13132, 13138
 13177, 13226, 13242, 13295, 13311, 13327, 13334, 13359, 13414, 13421, 13430, 13451, 13453, 13561, 13574, 13587
 13606, 13609, 13626, 13631, 13672, 13682, 13694, 13737, 13739, 13747, 13757, 13764, 13768, 13782, 13790, 13795
 13811, 13812, 13817, 13856, 13925, 13950, 13955, 13970, 13978, 13991, 14001, 14002, 14010, 14012, 14013, 14022
 14130, 14174, 14218, 14410, 14465, 14659, 14992, 15045, 15244, 15334, 15390, 15401, 15447, 15473, 15485, 15699
 15760, 15878, 16190, 16351, 16369, 16462, 16480, 16520, 16521, 16577, 16593, 16622, 16635, 16681, 16878, 16988
 17097, 17333, 17363, 17374, 17390, 17396, 17424, 17426, 17439, 17622, 17654, 17690, 17744, 17782, 17795, 17805
 17831, 17841, 17859, 17875, 17893, 17921, 17971, 17977, 17992, 18104, 18225, 18239, 18246, 18281, 18322, 18328
 18344, 18379, 18403, 18428, 18472, 18504, 18576, 18729, 18823, 18839, 18965, 18987, 19000, 19003, 19012, 19029
 19045, 19100, 19112, 19178, 19206, 19213, 19288, 19297, 19301, 19306, 19307, 19347, 19348, 19350, 19391, 19393
 19407, 19432, 19438, 19448, 19451, 19492, 19556, 19606, 19607, 19633, 19649, 19680, 19689, 19730, 19754, 19793
** ... 378 like lines cut
*Nset, nset=RubberSet, generate
     1,  20723,      1
*Elset, elset=RubberSet, generate
     1,  94240,      1
*Nset, nset=Constraint_Nodes-1
    2,  144,  145,  146,  147,  148,  149,  150,  151,  152,  153,  154,  155,  156,  157,  158
  159,  160,  161,  162,  163,  164,  165,  166,  167,  168,  169,  170,  171,  172,  173,  174
  175,  176,  177,  178,  179,  180,  181,  182,  183,  184,  185,  186,  187,  188,  189, 6836
 6837, 6838, 6839, 6840, 6841, 6842, 6843, 6844, 6845, 6846, 6847, 6848, 6849, 6850, 6851, 6852
 6853, 6854, 6855, 6856, 6857, 6858, 6859, 6860, 6861, 6862, 6863, 6864, 6865, 6866, 6867, 6868
 6869, 6870, 6871, 6872, 6873, 6874, 6875, 6876, 6877, 6878, 6879, 6880, 6881, 6882, 6883, 6884
 6885, 6886, 6887, 6888, 6889, 6890, 6891, 6892, 6893, 6894, 6895, 6896, 6897, 6898, 6899, 6900
 6901, 6902, 6903, 6904, 6905, 6906, 6907, 6908, 6909, 6910, 6911, 6912, 6913, 6914, 6915, 6916
 6917, 6918, 6919, 6920, 6921, 6922, 6923, 6924, 6925, 6926, 6927, 6928, 6929, 6930, 6931, 6932
 6933, 6934, 6935, 6936, 6937, 6938, 6939, 6940, 6941, 6942, 6943, 6944, 6945, 6946, 6947, 6948
 6949, 6950, 6951, 6952, 6953, 6954, 6955, 6956, 6957, 6958, 6959, 6960, 6961, 6962, 6963, 6964
 6965, 6966, 6967, 6968, 6969, 6970, 6971, 6972, 6973, 6974, 6975, 6976, 6977, 6978, 6979, 6980
 6981, 6982, 6983, 6984, 6985, 6986, 6987, 6988, 6989, 6990, 6991, 6992, 6993, 6994, 6995, 6996
 6997, 6998, 6999, 7000, 7001, 7002, 7003, 7004, 7005, 7006, 7007, 7008, 7009, 7010, 7011, 7012
 7013, 7014, 7015, 7016, 7017
*Elset, elset=_surface_0_All_S4, internal
    54,   155,   227,   367,   482,   786,   915,   918,   919,  1054,  1216,  1465,  1537,  1672,  2114,  2185
  2252,  2352,  2897,  3094,  3098,  3231,  3301,  3317,  3389,  3434,  3509,  3790,  3859,  4836,  5017,  5085
  5114,  5245,  5461,  5470,  5598,  5704,  6319,  6339,  6461,  6573,  6582,  6670,  6921,  6929,  6974,  6981
  7086,  7097,  7297,  7300,  7330,  7899,  7946,  7954,  8033,  8166,  8168,  8233,  8242,  8296,  8302,  8383
  8657,  8668,  8686,  8846,  9070,  9277,  9320,  9448,  9534,  9655,  9680,  9955, 10059, 10096, 10242, 10253
 10497, 10588, 10748, 10771, 10843, 11030, 11318, 11420, 11440, 11449, 11509, 11581, 11663, 11903, 11989, 12086
 12092, 12149, 12172, 12380, 12395, 12431, 12494, 12564, 12749, 12805, 12833, 12834, 12857, 12881, 12885, 12920
 12924, 12965, 13060, 13083, 13348, 13442, 13477, 13628, 13704, 13887, 13909, 13964, 14138, 14146, 14230, 14245
 14437, 14532, 14556, 14584, 14595, 14680, 14735, 14864, 14873, 14913, 14957, 15007, 15012, 15039, 15159, 15192
 15226, 15306, 15308, 15327, 15502, 15507, 15682, 15685, 15984, 16072, 16276, 16306, 16421, 16518, 16778, 16820
 16841, 16860, 17082, 17246, 17308, 17567, 17626, 17768, 17785, 18026, 18058, 18071, 18156, 18367, 18510, 18517
 18634, 18743, 18758, 18896, 18947, 18991, 19021, 19035, 19091, 19201, 19227, 19286, 19331, 19588, 19691, 19767
 19881, 19915, 19960, 20005, 20153, 20161, 20267, 20587, 20754, 20781, 21004, 21075, 21312, 21339, 21353, 21356
 21370, 21373, 21384, 21408, 21521, 21573, 21669, 21683, 21704, 21710, 21715, 21951, 21982, 22000, 22027, 22058
 22069, 22093, 22125, 22242, 22294, 22331, 22346, 22546, 22714, 22919, 22998, 23105, 23205, 23213, 23416, 23715
 23978, 24073, 24092, 24124, 24192, 24198, 24204, 24291, 24318, 24531, 24542, 24544, 24546, 24603, 24764, 24886
 25026, 25195, 25232, 25254, 25633, 25700, 25836, 26005, 26094, 26187, 26240, 26347, 26589, 26637, 26686, 26712
 26727, 26836, 26858, 26999, 27125, 27160, 27199, 27613, 27794, 27806, 27847, 27918, 27927, 27937, 28167, 28240
 28475, 28570, 28616, 28699, 28782, 28877, 29002, 29040, 29087, 29142, 29144, 29323, 29363, 29387, 29675, 29811
 30206, 30265, 30356, 30411, 30484, 30495, 30608, 30620, 30759, 30933, 30969, 31445, 31572, 31632, 31689, 31946
** ... 31 like lines cut
*Elset, elset=_surface_0_All_S3, internal
    72,    85,   268,   416,   492,   572,   674,   734,   790,   864,   865,   877,   936,   970,  1147,  1152
  1869,  1912,  1917,  2414,  2726,  3095,  3237,  3271,  3337,  3347,  3654,  3807,  3820,  3906,  4254,  4622
  4982,  5007,  5158,  5349,  5527,  5537,  5575,  5596,  5861,  5868,  5907,  5944,  5992,  6022,  6086,  6087
  6093,  6106,  6183,  6299,  6312,  6356,  6366,  6572,  6643,  6666,  6689,  6690,  6727,  6803,  6816,  6834
  6864,  6975,  7001,  7068,  7151,  7152,  7187,  7192,  7301,  7306,  7425,  7433,  7645,  7864,  7869,  7953
  7992,  8142,  8210,  8211,  8302,  8389,  8407,  8503,  8599,  8742,  8748,  8869,  8946,  9013,  9212,  9273
  9569,  9585,  9725,  9789,  9838,  9860, 10145, 10212, 10327, 10365, 10428, 10431, 10480, 10696, 10706, 10792
 10798, 10823, 10996, 10999, 11015, 11017, 11195, 11301, 11415, 11416, 11498, 11558, 11639, 11748, 11845, 11936
 11947, 11961, 11966, 11983, 11984, 11991, 11993, 12001, 12015, 12017, 12021, 12023, 12029, 12031, 12048, 12063
 12069, 12074, 12076, 12084, 12096, 12098, 12103, 12113, 12115, 12120, 12124, 12133, 12144, 12152, 12154, 12155
 12157, 12164, 12171, 12179, 12184, 12190, 12207, 12219, 12220, 12230, 12236, 12242, 12249, 12260, 12266, 12274
 12291, 12297, 12303, 12307, 12317, 12322, 12325, 12330, 12340, 12354, 12373, 12381, 12383, 12394, 12397, 12410
 12412, 12423, 12437, 12441, 12447, 12453, 12467, 12475, 12477, 12480, 12481, 12487, 12498, 12499, 12502, 12503
 12504, 12505, 12506, 12517, 12519, 12521, 12522, 12524, 12526, 12548, 12555, 12566, 12568, 12570, 12572, 12582
 12584, 12586, 12587, 12605, 12607, 12610, 12611, 12613, 12614, 12619, 12621, 12627, 12631, 12638, 12639, 12645
 12651, 12652, 12657, 12660, 12663, 12673, 12679, 12686, 12690, 12693, 12698, 12701, 12704, 12725, 12738, 12739
 12743, 12748, 12752, 12754, 12755, 12756, 12757, 12762, 12766, 12773, 12775, 12776, 12779, 12781, 12783, 12784
 12791, 12804, 12809, 12810, 12814, 12822, 12826, 12830, 12831, 12835, 12837, 12841, 12842, 12843, 12850, 12851
 12855, 12861, 12862, 12865, 12868, 12870, 12875, 12883, 12895, 12896, 12897, 12898, 12908, 12913, 12923, 12927
 12930, 12931, 12943, 12944, 12949, 12953, 12956, 12972, 12977, 12992, 12994, 12998, 13003, 13005, 13011, 13014
** ... 723 like lines cut
*Elset, elset=_surface_0_All_S1, internal
   272,   274,   576,   655,   933,   989,  1305,  1376,  1595,  2332,  2354,  2355,  2802,  3123,  3310,  3315
  3340,  3870,  4126,  4255,  4295,  4393,  6112,  6182,  6303,  6310,  6360,  6681,  6799,  6850,  6861,  6887
  6910,  7138,  7188,  7305,  7458,  7731,  8060,  8166,  8188,  8702,  8710,  8813,  9613,  9797, 10128, 10144
 10163, 10166, 10427, 10450, 10624, 10730, 10800, 10851, 11289, 11314, 11847, 12502, 12694, 12802, 13157, 13199
 13345, 13362, 13704, 13715, 14161, 14426, 14510, 14625, 14637, 14683, 14792, 14805, 14898, 15160, 15213, 15220
 15269, 15629, 16114, 16132, 16244, 16989, 17089, 17134, 17204, 17291, 17375, 18233, 18282, 18355, 18415, 18573
 18832, 18849, 18978, 19175, 19219, 20103, 20374, 20629, 20984, 21013, 21624, 21721, 21910, 21979, 22088, 22513
 22632, 22757, 22794, 22876, 23218, 24192, 24410, 24619, 24706, 24883, 25355, 25372, 25454, 25483, 25724, 25752
 26171, 26267, 26632, 28058, 28595, 29074, 29628, 29871, 30133, 30336, 30434, 30515, 30838, 30987, 31206, 31289
 31844, 31853, 31906, 31925, 31998, 32051, 32071, 32126, 32142, 32584, 32752, 32765, 33135, 33771, 34201, 34223
 34239, 34351, 34764, 34937, 34980, 35127, 35313, 35669, 35742, 35761, 35867, 36530, 37696, 37832, 37996, 38191
 38212, 38220, 38246, 38565, 38728, 39052, 39207, 39763, 39812, 40080, 40237, 40266, 40877, 41281, 41605, 41618
 41781, 42391, 43087, 43089, 43414, 43471, 43524, 43594, 44008, 44033, 44511, 45423, 45494, 45606, 45838, 45846
 46149, 46207, 46440, 46490, 46842, 47352, 47727, 48090, 48362, 48819, 49129, 49243, 49523, 49959, 50228, 50434
 50566, 51163, 51228, 51289, 51358, 51523, 51658, 51740, 51893, 52170, 52457, 52488, 52530, 52663, 52716, 53227
 53230, 53384, 53777, 53900, 54135, 54281, 54321, 54361, 54428, 54536, 55555, 56032, 56082, 57136, 57217, 57316
 57724, 58457, 58847, 59327, 59732, 60110, 60850, 61109, 61614, 61760, 62217, 62225, 62355, 62725, 63468, 63544
 64179, 64534, 64757, 64923, 65182, 65785, 66164, 66475, 66487, 66640, 67427, 67616, 68516, 68547, 68673, 69182
 69448, 70348, 70373, 70466, 72329, 72560, 73168, 73297, 73843, 74613, 74619, 74811, 75415, 75962, 76296, 77950
 77998, 78154, 78176, 78225, 78388, 78417, 78485, 79816, 80022, 80244, 80364, 80696, 81224, 81248, 81533, 81851
** ... 4 like lines cut
*Elset, elset=_surface_0_All_S2, internal
   219,   522,   541,   768,  3570,  4165,  4878,  6113,  6126,  8168,  8542,  8553, 10680, 11083, 11110, 11938
 12310, 12345, 12419, 12468, 12538, 12610, 12650, 12678, 12710, 12723, 12737, 12746, 12767, 12782, 12807, 12839
 12910, 12963, 13016, 13058, 13082, 13264, 13275, 13356, 13541, 13549, 13582, 13743, 13745, 13882, 13993, 14107
 14121, 14198, 14311, 14341, 14473, 14509, 14547, 14560, 14619, 14804, 14805, 14882, 15077, 15128, 15516, 15565
 15611, 15692, 15942, 16290, 16327, 16490, 16496, 16594, 16664, 17044, 17093, 17194, 17225, 17248, 17532, 17634
 17810, 17888, 18098, 18213, 18216, 18219, 18237, 18374, 18425, 18528, 18551, 18556, 18617, 18747, 18843, 18897
 18998, 19225, 19289, 19296, 19360, 19441, 19471, 19512, 19551, 19632, 19672, 19688, 19704, 19724, 19801, 19879
 19929, 19935, 19967, 20152, 20187, 20211, 20272, 20384, 20490, 20536, 20747, 20776, 20839, 20840, 20920, 20930
 20931, 20938, 20996, 21003, 21065, 21097, 21187, 21192, 21222, 21226, 21309, 21413, 21503, 21599, 21673, 21781
 21856, 21969, 22039, 22060, 22084, 22241, 22350, 22423, 22433, 22948, 23022, 23041, 23155, 23179, 23219, 23233
 23260, 23353, 23414, 23443, 23601, 23735, 23762, 23820, 24001, 24166, 24197, 24290, 24313, 24421, 24432, 24488
 24562, 24568, 24708, 24711, 24779, 24922, 24991, 24992, 25033, 25208, 25225, 25442, 25486, 25497, 25502, 25524
 25703, 25825, 25874, 26000, 26012, 26151, 26288, 26353, 26629, 26649, 26749, 26770, 26852, 26872, 26886, 27123
 27466, 27528, 27535, 27607, 27633, 27642, 27668, 27729, 27803, 27805, 27878, 27999, 28094, 28109, 28127, 28227
 28270, 28350, 28399, 28424, 28442, 28444, 28452, 28483, 28608, 28615, 28735, 28841, 28918, 28923, 29043, 29273
 29402, 29502, 29551, 29586, 29590, 29598, 29646, 29653, 29663, 29690, 29721, 29877, 29901, 29935, 29960, 30047
 30099, 30126, 30343, 30390, 30526, 30541, 30557, 30736, 30830, 30866, 30944, 30999, 31080, 31240, 31321, 31411
 31508, 31783, 31859, 31971, 32017, 32050, 32150, 32344, 32394, 32475, 32483, 32489, 32491, 32545, 32735, 32780
 32796, 32920, 32951, 32955, 33037, 33067, 33073, 33104, 33245, 33309, 33413, 33875, 33975, 33990, 34015, 34067
 34140, 34577, 34653, 34711, 34725, 34782, 34824, 34926, 34951, 34953, 35129, 35143, 35190, 35328, 35335, 35347
** ... 19 like lines cut
*Surface, type=ELEMENT, name=surface_0_All
_surface_0_All_S4, S4
_surface_0_All_S3, S3
_surface_0_All_S2, S2
_surface_0_All_S1, S1
*Elset, elset=_surface_1_All_S3, internal
    69,    86,   139,   244,   254,   299,  1442,  1460,  1494,  1552,  1559,  1592,  1681,  2506,  3329,  4203
  4830,  5485,  5688,  6121,  6514,  6735,  6832,  7009,  7081,  7180,  7473,  7475,  7476,  7594,  7667,  7726
  7855,  8480,  8717,  8775,  8906,  8988,  9067,  9381,  9994,  9996, 10160, 10378, 10658, 11111, 11742, 11930
 12045, 12121, 12160, 12231, 12263, 12265, 12279, 12288, 12313, 12320, 12333, 12352, 12368, 12393, 12401, 12479
 12514, 12542, 12557, 12561, 12593, 12603, 12632, 12634, 12643, 12662, 12672, 12681, 12687, 12740, 12745, 12763
 12798, 12879, 12916, 12919, 12990, 12993, 13017, 13020, 13023, 13032, 13039, 13042, 13049, 13050, 13057, 13087
 13132, 13177, 13242, 13295, 13327, 13334, 13359, 13414, 13421, 13430, 13451, 13453, 13525, 13561, 13574, 13587
 13606, 13609, 13631, 13672, 13682, 13694, 13737, 13739, 13747, 13757, 13764, 13768, 13782, 13790, 13795, 13811
 13812, 13817, 13856, 13925, 13955, 13970, 13978, 13991, 14001, 14002, 14010, 14012, 14013, 14022, 14174, 14202
 14218, 14410, 14465, 14659, 14907, 14992, 15146, 15206, 15235, 15298, 15334, 15390, 15401, 15447, 15473, 15479
 15699, 15760, 16190, 16369, 16462, 16480, 16520, 16521, 16577, 16602, 16622, 16635, 16846, 16878, 16898, 16988
 17077, 17097, 17333, 17374, 17390, 17396, 17424, 17426, 17622, 17690, 17744, 17795, 17831, 17859, 17875, 17893
 17921, 17971, 17977, 18104, 18239, 18246, 18281, 18322, 18328, 18344, 18379, 18403, 18504, 18576, 18729, 18839
 18965, 19000, 19003, 19012, 19029, 19045, 19100, 19112, 19178, 19213, 19288, 19297, 19301, 19307, 19347, 19348
 19350, 19391, 19393, 19407, 19432, 19438, 19448, 19451, 19556, 19606, 19607, 19633, 19649, 19680, 19689, 19730
 19793, 19800, 19803, 19829, 19893, 19940, 19942, 19965, 19982, 20003, 20038, 20068, 20149, 20266, 20278, 20279
 20293, 20476, 20488, 20509, 20572, 20712, 20718, 20722, 20727, 20735, 20844, 20852, 20900, 20948, 20954, 20983
 20997, 21020, 21059, 21069, 21105, 21156, 21185, 21189, 21507, 21510, 21565, 21568, 21580, 21586, 21702, 21838
 22059, 22183, 22243, 22250, 22823, 22828, 22911, 22955, 22972, 22979, 22982, 23008, 23026, 23091, 23113, 23220
 23298, 23458, 23473, 23523, 23525, 23556, 23562, 23578, 23597, 23609, 23625, 23632, 23643, 23655, 23657, 23668
** ... 332 like lines cut
*Elset, elset=_surface_1_All_S1, internal
    84,   437,   443,   490,   819,  1073,  1382,  1455,  1461,  1800,  2151,  2510,  2755,  3963,  4285,  4335
  7013,  7218,  7727,  8068,  8905,  8982, 10581, 10660, 11460, 12261, 12540, 14130, 15045, 16351, 16681, 19306
 19754, 20268, 20610, 20620, 20672, 20846, 22912, 23499, 23721, 24871, 25000, 25532, 25560, 25697, 25726, 26400
 26597, 27140, 27551, 29406, 29606, 29875, 29931, 30988, 31025, 31095, 32161, 34594, 35471, 35575, 36227, 36729
 37162, 37632, 38696, 41188, 41552, 41583, 42260, 43743, 46205, 46282, 46789, 48258, 48455, 48998, 49121, 49134
 49906, 50129, 50415, 50834, 50843, 51972, 52343, 52554, 53584, 55827, 56031, 56776, 57317, 57811, 57994, 58808
 59558, 59621, 59635, 60900, 61385, 63014, 63069, 63629, 63740, 63828, 64151, 64178, 64895, 65652, 65706, 65982
 66099, 66250, 66307, 66902, 67002, 67270, 67410, 67512, 67992, 68175, 68341, 68477, 69727, 70100, 70106, 70629
 71582, 71917, 71931, 72307, 73048, 73100, 73260, 73262, 73312, 73594, 73874, 73911, 73994, 74334, 74346, 74410
 74569, 74794, 75006, 75940, 76219, 76268, 76559, 76811, 77118, 77145, 77391, 77802, 78566, 78986, 79081, 79394
 79595, 79969, 80384, 80550, 80919, 81138, 81143, 81372, 81390, 81645, 81951, 82552, 83375, 84096, 84935, 85828
 86024, 86349, 87089, 87187, 87218, 87239, 87848, 88263, 89003, 89975, 89991, 90255, 90568, 90740, 91147, 91671
 91728, 91793, 91886, 92103, 92794, 93675, 93734
*Elset, elset=_surface_1_All_S4, internal
   278,   319,   383,   511,   518,   693,  1434,  1457,  2053,  2057,  2891,  2948,  3296,  3402,  3834,  3902
  4821,  6256,  6719,  7117,  7123,  7282,  7706,  8016,  8402,  8872,  9000,  9063,  9260,  9977, 10270, 10297
 10543, 11062, 11557, 11671, 11789, 13226, 13311, 13626, 15244, 15485, 15878, 16593, 17363, 17654, 17805, 17841
 18225, 18428, 18472, 18987, 19206, 19492, 20535, 21308, 22100, 22189, 22943, 22991, 23001, 23335, 23617, 24670
 25003, 25702, 25762, 25987, 26179, 26837, 27236, 27514, 27763, 27872, 27884, 27939, 29086, 29307, 30119, 30337
 31846, 31871, 31879, 31961, 32294, 32312, 33111, 33849, 34049, 34087, 34667, 35299, 36032, 36781, 36782, 37035
 37153, 38121, 38270, 38424, 38629, 38692, 38937, 39151, 39712, 39736, 40012, 40022, 40385, 40827, 41234, 41507
 41624, 41910, 42746, 42830, 42926, 42928, 43188, 45285, 45332, 45364, 46757, 46814, 46923, 47001, 47139, 47778
 48603, 48989, 49055, 49513, 49609, 49903, 49990, 50231, 50289, 50576, 50858, 51482, 51869, 52008, 52176, 52286
 52781, 53756, 53928, 53957, 54338, 54880, 55668, 55753, 55769, 55921, 56320, 56366, 56474, 56488, 56506, 56523
 56792, 56987, 57292, 57318, 57404, 57627, 57776, 57888, 57959, 57975, 58325, 58371, 58743, 58947, 58989, 59144
 59285, 59324, 59392, 59529, 59725, 59755, 59815, 60274, 60309, 60329, 60355, 60374, 60474, 60583, 61000, 61351
 61358, 61379, 61433, 61475, 61476, 61623, 62072, 62157, 62387, 62429, 62444, 62721, 62778, 62832, 63284, 63365
 63391, 63455, 63643, 64099, 64220, 64308, 64331, 64357, 64503, 65099, 65357, 65423, 65608, 65628, 65696, 65708
 66056, 66092, 66165, 66271, 66290, 66324, 66346, 66453, 66704, 66706, 66857, 66864, 67111, 67337, 67411, 67576
 67593, 67786, 68126, 68152, 68285, 68465, 68751, 68806, 68956, 69029, 69112, 69201, 69399, 69466, 69692, 69792
 69794, 69849, 70130, 70297, 70316, 70347, 70412, 70577, 70736, 70879, 71002, 71037, 71166, 71719, 71753, 71762
 71909, 72117, 72279, 72454, 72528, 72550, 72577, 72648, 72984, 73198, 73224, 73457, 73686, 73788, 73854, 73916
 74251, 74475, 74572, 74641, 74647, 75238, 75290, 75409, 75658, 75871, 75894, 76205, 76369, 76637, 76641, 76655
 76659, 77051, 77196, 77235, 77329, 77378, 77421, 77673, 77849, 77980, 78390, 78541, 78667, 79047, 79318, 79422
** ... 4 like lines cut
*Elset, elset=_surface_1_All_S2, internal
   384,  4546, 13138, 13950, 17065, 17439, 17782, 17992, 18823, 19964, 20529, 22763, 22989, 25704, 26092, 26284
 28061, 28090, 28107, 28558, 28582, 28730, 28732, 29756, 29891, 30529, 31694, 31765, 32119, 32425, 32758, 33151
 34375, 34999, 35272, 35340, 35458, 35498, 36161, 36494, 37103, 37152, 38337, 38678, 39701, 40061, 40695, 41059
 41147, 41754, 42566, 44268, 44534, 45865, 47138, 47792, 49218, 49806, 50075, 53093, 53477, 55310, 55423, 56078
 56204, 56340, 56356, 56449, 56541, 56984, 56997, 57168, 57241, 57252, 57401, 57620, 57789, 57820, 57956, 58250
 58545, 58663, 58667, 58856, 58901, 59067, 59321, 59591, 59992, 60012, 60348, 60361, 60380, 60481, 60609, 60710
 60929, 60984, 61481, 61551, 62572, 62694, 62819, 63048, 63080, 63177, 63190, 63238, 63295, 63444, 63570, 63699
 63891, 64052, 64487, 64599, 64861, 65084, 65266, 65366, 65389, 65452, 65539, 65562, 65631, 65632, 65722, 65946
 65988, 66044, 66079, 66117, 66412, 66674, 66738, 66916, 66984, 67238, 67319, 67464, 67654, 67664, 67772, 67932
 68021, 68044, 68094, 68154, 68240, 68336, 68507, 68537, 68538, 68649, 69282, 69354, 69519, 69734, 69923, 70134
 70307, 70543, 70661, 70902, 70978, 71152, 71190, 71432, 71485, 71509, 71558, 71571, 71655, 71768, 72055, 72449
 72536, 72646, 72712, 72720, 72966, 72969, 73089, 73468, 73494, 73710, 73927, 73964, 74233, 74544, 74568, 74601
 74643, 74708, 74750, 74879, 75167, 75331, 75423, 75609, 75901, 75915, 75991, 76134, 76138, 76160, 76167, 76171
 76383, 76424, 76475, 76509, 76598, 76713, 76809, 76922, 76958, 76970, 77027, 77348, 77365, 77518, 77602, 77705
 77823, 78006, 78135, 78450, 78454, 79070, 79414, 79541, 79602, 80200, 80473, 80998, 81310, 81363, 81880, 82560
 82567, 83492, 84037, 84053, 84626, 85727, 87660, 88049, 88198, 88599, 90926, 92963, 93844
*Surface, type=ELEMENT, name=surface_1_All
_surface_1_All_S3, S3
_surface_1_All_S1, S1
_surface_1_All_S4, S4
_surface_1_All_S2, S2
** Section: Rubber
*Solid Section, elset=RubberSet, material=Rubber
,
*End Part
**  
**
** ASSEMBLY
**
*Assembly, name=Assembly
**  
*Instance, name=final_model-1, part=final_model
*End Instance
**  
*Node
      1,           0.,           0.,          80.
*Nset, nset=RP1
 1,
*Nset, nset=_PickedSet9, internal
 1,
*Surface, type=NODE, name=final_model-1_Constraint_Nodes-1_CNS_, internal
final_model-1.Constraint_Nodes-1, 1.
** Constraint: Constraint-1
*Coupling, constraint name=Constraint-1, ref node=_PickedSet9, surface=final_model-1_Constraint_Nodes-1_CNS_
*Kinematic
*End Assembly
** 
** MATERIALS
** 
*Material, name=Rubber
*Density
 1.08e-09,
*Hyperelastic, neo hooke
 0.225, 0.444444,       0.,       0.,       0.,       0.
*Material, name=mat_1
*Density
 1.08e-09,
*Hyperelastic, neo hooke
 0.1125, 0.888889,       0.,       0.,       0.,       0.
*Material, name=mat_2
*Density
 1.08e-09,
*Hyperelastic, neo hooke
 0.113636,0.880000105600013,   0.,   0.,   0.,   0.
*Material, name=mat_3
*Density
 1.08e-09,
*Hyperelastic, neo hooke
 0.114773, 0.871287,       0.,       0.,       0.,       0.
*Material, name=mat_4
*Density
 1.08e-09,
*Hyperelastic, neo hooke
 0.115909, 0.862745,       0.,       0.,       0.,       0.
*Material, name=mat_5
*Density
 1.08e-09,
*Hyperelastic, neo hooke
 0.117045, 0.854369,       0.,       0.,       0.,       0.
*Material, name=mat_6
*Density
 1.08e-09,
*Hyperelastic, neo hooke
 0.118182, 0.846154,       0.,       0.,       0.,       0.
*Material, name=mat_7
*Density
 1.08e-09,
*Hyperelastic, neo hooke
 0.119318, 0.838095,       0.,       0.,       0.,       0.
*Material, name=mat_8
*Density
 1.08e-09,
*Hyperelastic, neo hooke
 0.120455, 0.830189,       0.,       0.,       0.,       0.
*Material, name=mat_9
*Density
 1.08e-09,
*Hyperelastic, neo hooke
 0.121591, 0.82243,      0.,      0.,      0.,      0.
*Material, name=mat_10
*Density
 1.08e-09,
*Hyperelastic, neo hooke
 0.122727, 0.814815,       0.,       0.,       0.,       0.
*Material, name=mat_11
*Density
 1.08e-09,
*Hyperelastic, neo hooke
 0.123864, 0.807339,       0.,       0.,       0.,       0.
*Material, name=mat_12
*Density
 1.08e-09,
*Hyperelastic, neo hooke
 0.125, 0.8,  0.,  0.,  0.,  0.
*Material, name=mat_13
*Density
 1.08e-09,
*Hyperelastic, neo hooke
 0.126136, 0.792793,       0.,       0.,       0.,       0.
*Material, name=mat_14
*Density
 1.08e-09,
*Hyperelastic, neo hooke
 0.127273, 0.785714,       0.,       0.,       0.,       0.
*Material, name=mat_15
*Density
 1.08e-09,
*Hyperelastic, neo hooke
 0.128409, 0.778761,       0.,       0.,       0.,       0.
*Material, name=mat_16
*Density
 1.08e-09,
*Hyperelastic, neo hooke
 0.129545, 0.77193,      0.,      0.,      0.,      0.
*Material, name=mat_17
*Density
 1.08e-09,
*Hyperelastic, neo hooke
 0.130682, 0.765217,       0.,       0.,       0.,       0.
*Material, name=mat_18
*Density
 1.08e-09,
*Hyperelastic, neo hooke
 0.131818, 0.758621,       0.,       0.,       0.,       0.
*Material, name=mat_19
*Density
 1.08e-09,
*Hyperelastic, neo hooke
 0.132955, 0.752137,       0.,       0.,       0.,       0.
*Material, name=mat_20
*Density
 1.08e-09,
*Hyperelastic, neo hooke
 0.134091, 0.745763,       0.,       0.,       0.,       0.
*Material, name=mat_21
*Density
 1.08e-09,
*Hyperelastic, neo hooke
 0.135227, 0.739496,       0.,       0.,       0.,       0.
*Material, name=mat_22
*Density
 1.08e-09,
*Hyperelastic, neo hooke
 0.136364, 0.733333,       0.,       0.,       0.,       0.
*Material, name=mat_23
*Density
 1.08e-09,
*Hyperelastic, neo hooke
 0.1375, 0.727273,       0.,       0.,       0.,       0.
*Material, name=mat_24
*Density
 1.08e-09,
*Hyperelastic, neo hooke
 0.138636, 0.721312,       0.,       0.,       0.,       0.
*Material, name=mat_25
*Density
 1.08e-09,
*Hyperelastic, neo hooke
 0.139773, 0.715447,       0.,       0.,       0.,       0.
*Material, name=mat_26
*Density
 1.08e-09,
*Hyperelastic, neo hooke
 0.140909, 0.709677,       0.,       0.,       0.,       0.
*Material, name=mat_27
*Density
 1.08e-09,
*Hyperelastic, neo hooke
 0.142045, 0.704,    0.,    0.,    0.,    0.
*Material, name=mat_28
*Density
 1.08e-09,
*Hyperelastic, neo hooke
 0.143182, 0.698413,       0.,       0.,       0.,       0.
*Material, name=mat_29
*Density
 1.08e-09,
*Hyperelastic, neo hooke
 0.144318, 0.692913,       0.,       0.,       0.,       0.
*Material, name=mat_30
*Density
 1.08e-09,
*Hyperelastic, neo hooke
 0.145455, 0.6875,     0.,     0.,     0.,     0.
*Material, name=mat_31
*Density
 1.08e-09,
*Hyperelastic, neo hooke
 0.146591, 0.682171,       0.,       0.,       0.,       0.
*Material, name=mat_32
*Density
 1.08e-09,
*Hyperelastic, neo hooke
 0.147727, 0.676923,       0.,       0.,       0.,       0.
*Material, name=mat_33
*Density
 1.08e-09,
*Hyperelastic, neo hooke
 0.148864, 0.671756,       0.,       0.,       0.,       0.
*Material, name=mat_34
*Density
 1.08e-09,
*Hyperelastic, neo hooke
 0.15, 0.666667,       0.,       0.,       0.,       0.
*Material, name=mat_35
*Density
 1.08e-09,
*Hyperelastic, neo hooke
 0.151136, 0.661654,       0.,       0.,       0.,       0.
*Material, name=mat_36
*Density
 1.08e-09,
*Hyperelastic, neo hooke
 0.152273, 0.656716,       0.,       0.,       0.,       0.
*Material, name=mat_37
*Density
 1.08e-09,
*Hyperelastic, neo hooke
 0.153409, 0.651852,       0.,       0.,       0.,       0.
*Material, name=mat_38
*Density
 1.08e-09,
*Hyperelastic, neo hooke
 0.154545, 0.647059,       0.,       0.,       0.,       0.
*Material, name=mat_39
*Density
 1.08e-09,
*Hyperelastic, neo hooke
 0.155682, 0.642336,       0.,       0.,       0.,       0.
*Material, name=mat_40
*Density
 1.08e-09,
*Hyperelastic, neo hooke
 0.156818, 0.637681,       0.,       0.,       0.,       0.
*Material, name=mat_41
*Density
 1.08e-09,
*Hyperelastic, neo hooke
 0.157955, 0.633094,       0.,       0.,       0.,       0.
*Material, name=mat_42
*Density
 1.08e-09,
*Hyperelastic, neo hooke
 0.159091, 0.628571,       0.,       0.,       0.,       0.
*Material, name=mat_43
*Density
 1.08e-09,
*Hyperelastic, neo hooke
 0.160227, 0.624114,       0.,       0.,       0.,       0.
*Material, name=mat_44
*Density
 1.08e-09,
*Hyperelastic, neo hooke
 0.161364, 0.619718,       0.,       0.,       0.,       0.
*Material, name=mat_45
*Density
 1.08e-09,
*Hyperelastic, neo hooke
 0.1625, 0.615385,       0.,       0.,       0.,       0.
*Material, name=mat_46
*Density
 1.08e-09,
*Hyperelastic, neo hooke
 0.163636, 0.611111,       0.,       0.,       0.,       0.
*Material, name=mat_47
*Density
 1.08e-09,
*Hyperelastic, neo hooke
 0.164773, 0.606896,       0.,       0.,       0.,       0.
*Material, name=mat_48
*Density
 1.08e-09,
*Hyperelastic, neo hooke
 0.165909, 0.60274,      0.,      0.,      0.,      0.
*Material, name=mat_49
*Density
 1.08e-09,
*Hyperelastic, neo hooke
 0.167045, 0.598639,       0.,       0.,       0.,       0.
*Material, name=mat_50
*Density
 1.08e-09,
*Hyperelastic, neo hooke
 0.168182, 0.594595,       0.,       0.,       0.,       0.
*Material, name=mat_51
*Density
 1.08e-09,
*Hyperelastic, neo hooke
 0.169318, 0.590604,       0.,       0.,       0.,       0.
*Material, name=mat_52
*Density
 1.08e-09,
*Hyperelastic, neo hooke
 0.170455, 0.586667,       0.,       0.,       0.,       0.
*Material, name=mat_53
*Density
 1.08e-09,
*Hyperelastic, neo hooke
 0.171591, 0.582781,       0.,       0.,       0.,       0.
*Material, name=mat_54
*Density
 1.08e-09,
*Hyperelastic, neo hooke
 0.172727, 0.578947,       0.,       0.,       0.,       0.
*Material, name=mat_55
*Density
 1.08e-09,
*Hyperelastic, neo hooke
 0.173864, 0.575163,       0.,       0.,       0.,       0.
*Material, name=mat_56
*Density
 1.08e-09,
*Hyperelastic, neo hooke
 0.175, 0.571429,       0.,       0.,       0.,       0.
*Material, name=mat_57
*Density
 1.08e-09,
*Hyperelastic, neo hooke
 0.176136, 0.567742,       0.,       0.,       0.,       0.
*Material, name=mat_58
*Density
 1.08e-09,
*Hyperelastic, neo hooke
 0.177273, 0.564102,       0.,       0.,       0.,       0.
*Material, name=mat_59
*Density
 1.08e-09,
*Hyperelastic, neo hooke
 0.178409, 0.56051,      0.,      0.,      0.,      0.
*Material, name=mat_60
*Density
 1.08e-09,
*Hyperelastic, neo hooke
 0.179545, 0.556962,       0.,       0.,       0.,       0.
*Material, name=mat_61
*Density
 1.08e-09,
*Hyperelastic, neo hooke
 0.180682, 0.553459,       0.,       0.,       0.,       0.
*Material, name=mat_62
*Density
 1.08e-09,
*Hyperelastic, neo hooke
 0.181818,0.549999945000005,   0.,   0.,   0.,   0.
*Material, name=mat_63
*Density
 1.08e-09,
*Hyperelastic, neo hooke
 0.182955, 0.546584,       0.,       0.,       0.,       0.
*Material, name=mat_64
*Density
 1.08e-09,
*Hyperelastic, neo hooke
 0.184091, 0.54321,      0.,      0.,      0.,      0.
*Material, name=mat_65
*Density
 1.08e-09,
*Hyperelastic, neo hooke
 0.185227, 0.539877,       0.,       0.,       0.,       0.
*Material, name=mat_66
*Density
 1.08e-09,
*Hyperelastic, neo hooke
 0.186364, 0.536585,       0.,       0.,       0.,       0.
*Material, name=mat_67
*Density
 1.08e-09,
*Hyperelastic, neo hooke
 0.1875, 0.533333,       0.,       0.,       0.,       0.
*Material, name=mat_68
*Density
 1.08e-09,
*Hyperelastic, neo hooke
 0.188636, 0.530121,       0.,       0.,       0.,       0.
*Material, name=mat_69
*Density
 1.08e-09,
*Hyperelastic, neo hooke
 0.189773, 0.526946,       0.,       0.,       0.,       0.
*Material, name=mat_70
*Density
 1.08e-09,
*Hyperelastic, neo hooke
 0.190909, 0.523809,       0.,       0.,       0.,       0.
*Material, name=mat_71
*Density
 1.08e-09,
*Hyperelastic, neo hooke
 0.192045, 0.52071,      0.,      0.,      0.,      0.
*Material, name=mat_72
*Density
 1.08e-09,
*Hyperelastic, neo hooke
 0.193182, 0.517647,       0.,       0.,       0.,       0.
*Material, name=mat_73
*Density
 1.08e-09,
*Hyperelastic, neo hooke
 0.194318, 0.51462,      0.,      0.,      0.,      0.
*Material, name=mat_74
*Density
 1.08e-09,
*Hyperelastic, neo hooke
 0.195455, 0.511628,       0.,       0.,       0.,       0.
*Material, name=mat_75
*Density
 1.08e-09,
*Hyperelastic, neo hooke
 0.196591, 0.508671,       0.,       0.,       0.,       0.
*Material, name=mat_76
*Density
 1.08e-09,
*Hyperelastic, neo hooke
 0.197727, 0.505747,       0.,       0.,       0.,       0.
*Material, name=mat_77
*Density
 1.08e-09,
*Hyperelastic, neo hooke
 0.198864, 0.502857,       0.,       0.,       0.,       0.
*Material, name=mat_78
*Density
 1.08e-09,
*Hyperelastic, neo hooke
 0.2, 0.5,  0.,  0.,  0.,  0.
*Material, name=mat_79
*Density
 1.08e-09,
*Hyperelastic, neo hooke
 0.201136, 0.497175,       0.,       0.,       0.,       0.
*Material, name=mat_80
*Density
 1.08e-09,
*Hyperelastic, neo hooke
 0.202273, 0.494382,       0.,       0.,       0.,       0.
*Material, name=mat_81
*Density
 1.08e-09,
*Hyperelastic, neo hooke
 0.203409, 0.49162,      0.,      0.,      0.,      0.
*Material, name=mat_82
*Density
 1.08e-09,
*Hyperelastic, neo hooke
 0.204545, 0.488889,       0.,       0.,       0.,       0.
*Material, name=mat_83
*Density
 1.08e-09,
*Hyperelastic, neo hooke
 0.205682, 0.486188,       0.,       0.,       0.,       0.
*Material, name=mat_84
*Density
 1.08e-09,
*Hyperelastic, neo hooke
 0.206818, 0.483516,       0.,       0.,       0.,       0.
*Material, name=mat_85
*Density
 1.08e-09,
*Hyperelastic, neo hooke
 0.207955, 0.480874,       0.,       0.,       0.,       0.
*Material, name=mat_86
*Density
 1.08e-09,
*Hyperelastic, neo hooke
 0.209091, 0.478261,       0.,       0.,       0.,       0.
*Material, name=mat_87
*Density
 1.08e-09,
*Hyperelastic, neo hooke
 0.210227, 0.475676,       0.,       0.,       0.,       0.
*Material, name=mat_88
*Density
 1.08e-09,
*Hyperelastic, neo hooke
 0.211364, 0.473118,       0.,       0.,       0.,       0.
*Material, name=mat_89
*Density
 1.08e-09,
*Hyperelastic, neo hooke
 0.2125, 0.470588,       0.,       0.,       0.,       0.
*Material, name=mat_90
*Density
 1.08e-09,
*Hyperelastic, neo hooke
 0.213636, 0.468085,       0.,       0.,       0.,       0.
*Material, name=mat_91
*Density
 1.08e-09,
*Hyperelastic, neo hooke
 0.214773, 0.465608,       0.,       0.,       0.,       0.
*Material, name=mat_92
*Density
 1.08e-09,
*Hyperelastic, neo hooke
 0.215909, 0.463158,       0.,       0.,       0.,       0.
*Material, name=mat_93
*Density
 1.08e-09,
*Hyperelastic, neo hooke
 0.217045, 0.460733,       0.,       0.,       0.,       0.
*Material, name=mat_94
*Density
 1.08e-09,
*Hyperelastic, neo hooke
 0.218182, 0.458333,       0.,       0.,       0.,       0.
*Material, name=mat_95
*Density
 1.08e-09,
*Hyperelastic, neo hooke
 0.219318, 0.455959,       0.,       0.,       0.,       0.
*Material, name=mat_96
*Density
 1.08e-09,
*Hyperelastic, neo hooke
 0.220455, 0.453608,       0.,       0.,       0.,       0.
*Material, name=mat_97
*Density
 1.08e-09,
*Hyperelastic, neo hooke
 0.221591, 0.451282,       0.,       0.,       0.,       0.
*Material, name=mat_98
*Density
 1.08e-09,
*Hyperelastic, neo hooke
 0.222727, 0.44898,      0.,      0.,      0.,      0.
*Material, name=mat_99
*Density
 1.08e-09,
*Hyperelastic, neo hooke
 0.223864, 0.4467,     0.,     0.,     0.,     0.
*Material, name=mat_100
*Density
 1.08e-09,
*Hyperelastic, neo hooke
 0.225, 0.444444,       0.,       0.,       0.,       0.
** 
** BOUNDARY CONDITIONS
** 
** Name: BC-1 Type: Displacement/Rotation
*Boundary
final_model-1.surface_0_Bottom, 1, 1
final_model-1.surface_0_Bottom, 2, 2
final_model-1.surface_0_Bottom, 3, 3
final_model-1.surface_0_Bottom, 4, 4
final_model-1.surface_0_Bottom, 5, 5
final_model-1.surface_0_Bottom, 6, 6
** ----------------------------------------------------------------
** 
** STEP: Step-Pressure
** 
*Step, name=Step-Pressure, nlgeom=YES
*Static
1., 1., 1e-05, 1.
** 
** OUTPUT REQUESTS
** 
*Restart, write, frequency=0
** 
** FIELD OUTPUT: F-Output-1
** 
*Output, field
*Node Output
U, 
** 
** HISTORY OUTPUT: H-Output-1
** 
*Output, history, variable=PRESELECT
*End Step
** ----------------------------------------------------------------
** 
** STEP: Step-ADJ-1
** 
*Step, name=Step-ADJ-1, nlgeom=NO, perturbation
*Static
** 
** OUTPUT REQUESTS
** 
** 
** FIELD OUTPUT: Perturb-output
** 
*Output, field
*Node Output
U, 
** 
** HISTORY OUTPUT: H-Output-2
** 
*Output, history, variable=PRESELECT
*End Step
